clear
set defaultbasefrequency=60
new object=circuit.lehigh basekv=115 pu=1.0001 phases=3 bus1=sourcebus angle=30 mvasc3=20000 mvasc1=21000
edit object=vsource.source basekv=115 bus1=sourcebus.1.2.3 pu=1.00 r1=0 x1=0.0001 r0=0 x0=0.0001
new object=vsource.secondsource basekv=4.16 bus1=680.1.2.3 pu=1.00 r1=0 x1=0.0001 r0=0 x0=0.0001
new object=transformer.sub phases=3 windings=2 xhl=0.008 buses=[sourcebus.1.2.3,650.1.2.3] conns=[delta,wye] kvs=[115,4.16] kvas=[5000,5000] %rs=[0.0005,0.0005]
new object=transformer.reg1 phases=1 bank=reg1 xhl=0.01 kvas=[1666,1666] buses=[650.1,rg60.1] kvs=[2.4,2.4] %loadloss=0.01
new object=regcontrol.reg1 transformer=reg1 winding=2 vreg=121 band=2 ptratio=20 ctprim=700 r=3 x=9
new object=transformer.reg2 phases=1 bank=reg1 xhl=0.01 kvas=[1666,1666] buses=[650.2,rg60.2] kvs=[2.4,2.4] %loadloss=0.01
new object=regcontrol.reg2 transformer=reg2 winding=2 vreg=121 band=2 ptratio=20 ctprim=700 r=3 x=9
new object=transformer.reg3 phases=1 bank=reg1 xhl=0.01 kvas=[1666,1666] buses=[650.3,rg60.3] kvs=[2.4,2.4] %loadloss=0.01
new object=regcontrol.reg3 transformer=reg3 winding=2 vreg=121 band=2 ptratio=20 ctprim=700 r=3 x=9
new object=transformer.xfm1 phases=3 windings=2 xhl=2 buses=[633.1.2.3,634.1.2.3] conns=[wye,wye] kvs=[4.16,0.480] kvas=[500,500] %rs=[0.55,0.55] xht=1 xlt=1
new object=linecode.mtx601 nphases=3 basefreq=60 rmatrix=[0.3465|0.1560,0.3375|0.1580,0.1535,0.3414] xmatrix=[1.0179|0.5017,1.0478|0.4236,0.3849,1.0348] units=mi
new object=linecode.mtx602 nphases=3 basefreq=60 rmatrix=[0.7526|0.1580,0.7475|0.1560,0.1535,0.7436] xmatrix=[1.1814|0.4236,1.1983|0.5017,0.3849,1.2112] units=mi
new object=linecode.mtx603 nphases=2 basefreq=60 rmatrix=[1.3238|0.2066,1.3294] xmatrix=[1.3569|0.4591,1.3471] units=mi
new object=linecode.mtx604 nphases=2 basefreq=60 rmatrix=[1.3238|0.2066,1.3294] xmatrix=[1.3569|0.4591,1.3471] units=mi
new object=linecode.mtx605 nphases=1 basefreq=60 rmatrix=[1.3292] xmatrix=[1.3475] units=mi
new object=linecode.mtx606 nphases=3 units=mi rmatrix=[0.791721|0.318476,0.781649|0.28345,0.318476,0.791721] xmatrix=[0.438352|0.0276838,0.396697|-0.0184204,0.0276838,0.438352] cmatrix=[383.948|0,383.948|0,0,383.948]
new object=linecode.mtx607 nphases=1 basefreq=60 rmatrix=[1.3425] xmatrix=[0.5124] cmatrix=[236] units=mi
new object=loadshape.solar_670_shape npts=8760 interval=1 useactual=yes mult=[0.0,0.0,0.0,0.0,0.0,0.0,0.0,0.0,34.39727097697059,104.2924806769607,147.21992668581052,452.39269449435005,103.7421468039362,242.43189845786745,362.6847634090084,390.4773259532147,195.1010795083513,12.933547972545671,0.0,0.0,0.0,0.0,0.0,0.0,0.0,0.0,0.0,0.0,0.0,0.0,0.0,0.0,90.25826495836608,229.2231835488096,320.85728318973685,12.658381036033438,688.7702183924777,246.28423556903877,894.3283434447644,615.0226715813163,324.7103222573788,27.79326450067698,0.0,0.0,0.0,0.0,0.0,0.0,0.0,0.0,0.0,0.0,0.0,0.0,0.0,0.0,264.7211222718292,617.2240070734142,820.0304627605788,347.5498799443649,618.0495078829509,616.3985062638775,503.5758505550375,437.25781102970655,229.4983504853218,18.16171976627811,0.0,0.0,0.0,0.0,0.0,0.0,0.0,0.0,0.0,0.0,0.0,0.0,0.0,0.0,402.8605400527358,922.947108754978,1310.3975984065582,1552.279162991401,1644.463596505353,1600.9858166234787,1408.3612395437376,1079.5234132386752,588.330776783159,115.57502703043296,0.0,0.0,0.0,0.0,0.0,0.0,0.0,0.0,0.0,0.0,0.0,0.0,0.0,0.0,438.0833118392432,977.4322680538124,1375.3398032493285,1616.3958670246348,1704.4527964909028,1644.1884295688408,1437.8048037070173,1096.0341313858798,593.8341155134036,112.82265570883992,0.0,0.0,0.0,0.0,0.0,0.0,0.0,0.0,0.0,0.0,0.0,0.0,0.0,0.0,346.1740452618037,819.7552958240665,1285.081538290962,1151.6199584307633,1301.8667214182085,1342.8687008279433,1348.0968726216756,1022.8369184477432,553.6583388696762,103.466979867424,0.0,0.0,0.0,0.0,0.0,0.0,0.0,0.0,0.0,0.0,0.0,0.0,0.0,0.0,351.40221705553614,348.92571462692604,1246.83193020282,1430.1001294846749,1280.6781653502958,1226.1930060514612,1033.5684289717203,528.3415767976093,279.0305049269359,29.719433056262613,0.0,0.0,0.0,0.0,0.0,0.0,0.0,0.0,0.0,0.0,0.0,0.0,0.0,0.0,357.7310565953175,834.0646784791733,220.14267464390588,290.037884343896,649.1447756217747,752.0614216161741,616.1233393273652,399.2833698780769,211.88696459206815,24.490559306059485,0.0,0.0,0.0,0.0,0.0,0.0,0.0,0.0,0.0,0.0,0.0,0.0,0.0,0.0,367.6377682662286,843.9713901500844,452.39269449435005,962.2973845891688,753.7124232352477,351.9525509285606,451.29202674830105,377.54447993713967,195.65141338137573,92.45960045046397,0.0,0.0,0.0,0.0,0.0,0.0,0.0,0.0,0.0,0.0,0.0,0.0,0.0,0.0,170.3353532657795,421.022259819014,678.3138748050128,1162.6273378477235,674.7367046303538,881.1203304921771,894.8786773177891,722.0668216233993,402.8605400527358,70.72071050952681,0.0,0.0,0.0,0.0,0.0,0.0,0.0,0.0,0.0,0.0,0.0,0.0,0.0,0.0,443.5866505694878,981.8349390380082,1374.2391355032794,1610.6166594014069,1697.572921121626,1644.463596505353,1452.3893532986365,1130.7065692993626,671.158832499224,165.3816464520886,0.0,0.0,0.0,0.0,0.0,0.0,0.0,0.0,0.0,0.0,0.0,0.0,0.0,0.0,409.73971346554174,930.6517829773207,1305.9949274223625,1583.6495976667372,1680.511869101397,1643.087761822792,1455.9665234732956,1102.362970925661,655.4743171180268,162.9051440234785,0.0,0.0,0.0,0.0,0.0,0.0,0.0,0.0,0.0,0.0,0.0,0.0,0.0,0.0,400.9343714971503,920.195439389856,1295.8130488149393,1195.3736072056206,1326.908316553763,1206.655451602622,1088.8790890800913,868.737116392656,515.4087307815342,124.65553593533669,0.0,0.0,0.0,0.0,0.0,0.0,0.0,0.0,0.0,0.0,0.0,0.0,0.0,0.0,167.03335002763274,395.7061997034178,717.1138167661791,914.141064830116,1047.3274777538024,961.19671684312,568.5180553978074,462.8497400382855,261.1439520971701,42.65227907233759,0.0,0.0,0.0,0.0,0.0,0.0,0.0,0.0,0.0,0.0,0.0,0.0,0.0,0.0,88.0569294662682,236.3782258545984,1097.9602999414656,1368.735094816564,1580.897928301615,1568.2395472655817,1400.9310303014363,1093.832795893782,637.5877642882609,161.25414240440512,0.0,0.0,0.0,0.0,0.0,0.0,0.0,0.0,0.0,0.0,0.0,0.0,0.0,0.0,364.6109319645941,847.2733933882312,1195.0977383126374,1010.7288712847342,1187.9433979633195,1546.775824261157,934.7799889814752,427.0759324222832,239.12989521972068,43.20261294536206,0.0,0.0,0.0,0.0,0.0,0.0,0.0,0.0,0.0,0.0,0.0,0.0,0.0,0.0,376.9941460641152,906.7115575442856,1323.6063133156165,1613.0931618300172,1674.458196498128,1631.5300485328075,1448.812183123977,1140.062245140779,667.5816623245651,173.91252344043855,0.0,0.0,0.0,0.0,0.0,0.0,0.0,0.0,0.0,0.0,0.0,0.0,0.0,0.0,411.66658397759807,927.349779739174,1341.7680330818944,1589.152936396982,1688.21724528021,1645.8394311879144,1477.1557814976788,1156.5729632879836,679.4145425510617,179.41586217068323,0.0,0.0,0.0,0.0,0.0,0.0,0.0,0.0,0.0,0.0,0.0,0.0,0.0,0.0,434.230974728072,973.5799309426412,1365.4330915784171,1598.784481131381,1751.5077465474358,1706.6541319830008,1516.7812242683815,1160.1501334626423,713.8118135280323,195.65141338137573,0.0,0.0,0.0,0.0,0.0,0.0,0.0,0.0,0.0,0.0,0.0,0.0,0.0,0.0,426.2504316127464,950.7396712991844,1329.384818982373,1556.681833975597,1641.7119271402307,1592.4549396351283,1419.6430839407392,1119.4240229458906,678.3138748050128,182.4426984723178,0.0,0.0,0.0,0.0,0.0,0.0,0.0,0.0,0.0,0.0,0.0,0.0,0.0,0.0,109.79581940720536,274.90300087925243,416.34442189830605,237.75406053715952,689.3212542219728,183.81923511134968,191.79907627020444,2.751669365122336,0.0,0.0,0.0,0.0,0.0,0.0,0.0,0.0,0.0,0.0,0.0,0.0,0.0,0.0,0.0,0.0,101.26564437532612,297.4673916297263,840.6686849554668,897.9055136194235,1695.0964186930162,1658.4978122239477,783.7070232280224,679.9648764240862,395.4310327669056,87.78176252975598,0.0,0.0,0.0,0.0,0.0,0.0,0.0,0.0,0.0,0.0,0.0,0.0,0.0,0.0,114.47435928438402,296.9170577567018,345.0733775157548,858.8304047217449,1812.0472804060105,1781.502346540211,1589.9784372065187,1255.0869382981873,757.2895934099066,214.6386339571905,0.0,0.0,0.0,0.0,0.0,0.0,0.0,0.0,0.0,0.0,0.0,0.0,0.0,0.0,454.0436961134234,999.721491867774,1393.2256541226234,1629.0535461041975,1727.292354177889,1685.4655759150878,1509.626181962593,1196.7494418881818,749.5849191875642,219.59234077088144,0.0,0.0,0.0,0.0,0.0,0.0,0.0,0.0,0.0,0.0,0.0,0.0,0.0,0.0,432.57997310899856,955.418211176363,1329.109652045861,1557.782501721646,1651.618638811142,1606.4891553537236,1442.483343584196,1151.0696245577387,719.5903191947892,212.16213152858043,0.0,0.0,0.0,0.0,0.0,0.0,0.0,0.0,0.0,0.0,0.0,0.0,0.0,0.0,287.0103460857908,657.9508195466368,758.3902611559555,1125.7535644421428,1260.3151100919197,1207.756119348671,1099.611301560539,808.7479164071065,495.3201405031999,141.44142101905362,0.0,0.0,0.0,0.0,0.0,0.0,0.0,0.0,0.0,0.0,0.0,0.0,0.0,0.0,341.2210404045835,797.1909050735926,772.4244768745501,1434.7779674053827,1513.7543879667471,1098.235466877978,152.44880043601364,1067.6905330121783,630.7078889189843,177.4896936150976,0.0,0.0,0.0,0.0,0.0,0.0,0.0,0.0,0.0,0.0,0.0,0.0,0.0,0.0,96.58780645461816,155.47563673764822,234.45135534254203,362.40959647249616,286.184845276254,198.67824968301028,201.4306210046033,78.15021779535711,40.17577664372749,0.8255008095367006,0.0,0.0,0.0,0.0,0.0,0.0,0.0,0.0,0.0,0.0,0.0,0.0,0.0,0.0,454.594029986448,990.6409829628706,1379.1921403604997,1619.4227033262691,1717.3856425069778,1679.1360344188358,1519.2577266969918,1220.964834257729,751.5110877431497,238.0292274736717,0.0,0.0,0.0,0.0,0.0,0.0,0.0,0.0,0.0,0.0,0.0,0.0,0.0,0.0,431.7544722994618,954.5927103668264,1335.7143604786252,1564.6623770909223,1660.4239807795332,1626.301876739075,1464.4974004616452,940.0081607752072,625.4797171252519,236.3782258545984,0.0,0.0,0.0,0.0,0.0,0.0,0.0,0.0,0.0,0.0,0.0,0.0,0.0,0.0,134.83741454276,413.5927525331838,704.1802687936334,712.7111457819834,916.893436151709,865.9854470275336,781.7808546724369,562.4636808380676,345.0733775157548,99.06430888322824,0.0,0.0,0.0,0.0,0.0,0.0,0.0,0.0,0.0,0.0,0.0,0.0,0.0,0.0,454.31886304993566,998.6208241217251,1415.2404129565434,1657.9474783509231,1760.313790472298,1729.7688566064987,1553.6549976739625,1252.335268933065,779.8546861168512,260.3184512876333,0.0,0.0,0.0,0.0,0.0,0.0,0.0,0.0,0.0,0.0,0.0,0.0,0.0,0.0,455.9698646690092,972.20409626008,1348.647908451171,1580.34689247212,1674.73336343464,1648.8662674895488,1493.1161657718587,1208.5816201582077,779.5795191803388,265.2714561448536,0.0,0.0,0.0,0.0,0.0,0.0,0.0,0.0,0.0,0.0,0.0,0.0,0.0,0.0,452.6678614308623,392.6786614453125,921.0209401993926,1144.4656180814452,1305.9949274223625,1279.3023306677346,1102.087803989149,315.6291113960044,228.12251580276063,150.522631880428,0.0,0.0,0.0,0.0,0.0,0.0,0.0,0.0,0.0,0.0,0.0,0.0,0.0,0.0,0.0,349.7512154364628,943.034997076842,1322.5056455695674,1723.1648501302052,1721.789015447644,1577.5952231069975,1282.8795008423936,809.5734172166431,284.80901059369285,0.0,0.0,0.0,0.0,0.0,0.0,0.0,0.0,0.0,0.0,0.0,0.0,0.0,0.0,326.91165774947666,871.7639526942907,1304.0687588667768,1741.876903769508,1471.9269077474755,1654.6454751127762,1624.3757081834892,1261.690944774481,487.6154662808573,237.20372666413505,0.0,0.0,0.0,0.0,0.0,0.0,0.0,0.0,0.0,0.0,0.0,0.0,0.0,0.0,240.50572990228187,319.20628157066346,240.50572990228187,362.40959647249616,239.95539602925737,1001.9235293163424,912.4900632110426,662.3534905308326,230.0486843583463,31.64560161184825,0.0,0.0,0.0,0.0,0.0,0.0,0.0,0.0,0.0,0.0,0.0,0.0,0.0,0.0,17.886552829765876,115.57502703043296,180.7916968532444,646.9434401296768,778.7533164143315,362.6847634090084,525.3147404959747,228.94801661229732,138.9649185904435,261.6942859701945,0.0,0.0,0.0,0.0,0.0,0.0,0.0,0.0,0.0,0.0,0.0,0.0,0.0,0.0,113.92402541135957,108.4199847246442,420.4719259459896,823.6076329352377,755.363424854321,944.9611656324277,1032.7429281621835,1245.4553935637882,805.1707462324473,288.93721659784705,0.0,0.0,0.0,0.0,0.0,0.0,0.0,0.0,0.0,0.0,0.0,0.0,0.0,0.0,91.35893270441504,231.9748529139319,433.95580779155966,1616.1207000881222,606.4924965494371,603.1904933112903,684.6434163012649,515.1328618885514,12.658381036033438,268.5734593830004,0.0,0.0,0.0,0.0,0.0,0.0,0.0,0.0,0.0,0.0,0.0,0.0,0.0,0.0,146.11925893976158,649.419942558287,1403.6834016230296,1675.558864244177,1768.8439655041773,1760.313790472298,1599.6099819409176,1302.1425903111913,842.8700204475647,317.8304468881023,0.0,0.0,0.0,0.0,0.0,0.0,0.0,0.0,0.0,0.0,0.0,0.0,0.0,46.50531813997956,535.7717860399102,1069.341534631252,1465.04773433467,1697.022587248602,1794.1607275762444,1756.736620297639,1597.1327775558368,1305.4445935493382,871.7639526942907,334.06599809879475,0.0,0.0,0.0,0.0,0.0,0.0,0.0,0.0,0.0,0.0,0.0,0.0,0.0,47.33081894951626,516.5093985275832,1030.5415926700855,1402.3068649839977,1629.0535461041975,1726.1916864318396,1700.0494235502365,1598.784481131381,1266.919818524684,841.2190188284914,323.8848214478421,0.0,0.0,0.0,0.0,0.0,0.0,0.0,0.0,0.0,0.0,0.0,0.0,0.0,59.71333109256676,542.9261263892283,1069.6167015677645,1488.9879597677048,1669.2300247043952,1760.5889574088108,1479.0819500532646,1402.58203192051,1075.1207422544796,848.9243950073044,183.2681992818545,0.0,0.0,0.0,0.0,0.0,0.0,0.0,0.0,0.0,0.0,0.0,0.0,0.0,1.1006677460489342,301.5948956774098,690.4219219680218,975.781266434739,1110.8938479140113,1311.2230992160949,1387.7223153923787,922.947108754978,811.7747527087408,575.3972288106133,195.1010795083513,0.0,0.0,0.0,0.0,0.0,0.0,0.0,0.0,0.0,0.0,0.0,0.0,0.0,13.208714909057903,485.9644646617839,974.4054317521778,1365.4330915784171,1603.737485988601,1702.801794871829,1676.6595319902258,1528.8892714313906,1235.82455078586,790.8613635773405,305.723101681564,0.0,0.0,0.0,0.0,0.0,0.0,0.0,0.0,0.0,0.0,0.0,0.0,0.0,0.0,72.37171212860021,102.6414790578873,325.5358230669155,455.4195307959845,485.6892977252717,588.0556098466468,374.51694167903446,324.985489193891,345.8988783252915,128.50787304650794,0.0,0.0,0.0,0.0,0.0,0.0,0.0,0.0,0.0,0.0,0.0,0.0,0.0,0.0,7.979841158854774,354.9793872301952,631.5333897285211,817.5539603319686,1236.3748846588846,1412.7639105279331,1105.3898072272962,1367.3592601340026,515.9590646545588,176.6641928055609,0.0,0.0,0.0,0.0,0.0,0.0,0.0,0.0,0.0,0.0,0.0,0.0,0.0,58.06232947349337,180.24136298021992,388.551157397629,684.9178812813064,947.988001934062,1833.5110034104357,1770.219800186739,1612.8179948935046,1325.5324818712018,894.3283434447644,360.7585948534228,0.0,0.0,0.0,0.0,0.0,0.0,0.0,0.0,0.0,0.0,0.0,0.0,0.0,74.29788068418584,551.181836441066,1066.039531393105,1435.053134341895,1660.4239807795332,1740.501069086947,1706.1037981099762,1560.2590041502558,1281.778833096345,865.9854470275336,351.1270501190239,0.0,0.0,0.0,0.0,0.0,0.0,0.0,0.0,0.0,0.0,0.0,0.0,0.0,67.69387420789224,209.6856290999703,877.2672914245353,1060.2603237698777,1639.785758584645,1725.9165194953275,1695.3715856295282,1547.8764920072051,1270.4969886993429,859.6559055312816,333.79083116228253,0.0,0.0,0.0,0.0,0.0,0.0,0.0,0.0,0.0,0.0,0.0,0.0,0.0,29.994599992774845,111.44682102627876,548.4294651194731,515.9590646545588,712.4359788454711,977.9826019268368,797.4660720101048,1017.3328777610276,501.3745150629397,156.3011375471849,0.2751669365122335,0.0,0.0,0.0,0.0,0.0,0.0,0.0,0.0,0.0,0.0,0.0,0.0,0.0,0.0,14.30938265510684,7.154340349318073,86.13076091068257,558.6113437268964,387.7256565880924,894.6042123377474,970.552392684536,642.540769145481,70.44554357301458,330.2136609876234,0.0,0.0,0.0,0.0,0.0,0.0,0.0,0.0,0.0,0.0,0.0,0.0,0.0,99.33947581974049,622.4528808236173,1178.3118532289209,1578.4214258730049,1827.732497743678,1918.816263511581,1814.7989497711328,1658.2226452874354,1365.4330915784171,937.256491410085,396.2565335764423,0.0,0.0,0.0,0.0,0.0,0.0,0.0,0.0,0.0,0.0,0.0,0.0,0.0,105.1179814864974,610.3448336606083,1122.1756923110129,1487.6121250851438,1709.405801348123,1798.0130646874156,1760.5889574088108,1606.213988417211,1326.3579826807386,907.8122252903346,382.22231785784766,0.0,0.0,0.0,0.0,0.0,0.0,0.0,0.0,0.0,0.0,0.0,0.0,0.0,69.8952096999901,552.5576711236272,866.8109478370703,1197.2997757612063,1452.3893532986365,1453.214854108173,1453.7651879811974,871.4887857577783,610.6200005971206,837.0915147808079,366.8122674566919,0.0,0.0,0.0,0.0,0.0,0.0,0.0,0.0,0.0,0.0,0.0,0.0,0.0,39.90060970721525,339.8445037655517,763.6191349061586,911.664562401506,1110.8938479140113,1084.2012511593832,1337.915695970723,994.4933200740415,502.2000158724764,157.12663835672163,155.75080367416044,0.0,0.0,0.0,0.0,0.0,0.0,0.0,0.0,0.0,0.0,0.0,0.0,0.0,85.30526010114588,418.27059045389166,563.5643485841166,933.6786192789552,1296.6392515809466,1278.75199679471,1176.6608516098472,1018.7087124435888,985.136942276155,571.8200586359543,132.63607905066212,0.0,0.0,0.0,0.0,0.0,0.0,0.0,0.0,0.0,0.0,0.0,0.0,0.0,45.40465039393062,251.78757429928345,663.7293252133937,684.9178812813064,857.1794031026715,1043.199973706119,1211.33328952333,1069.341534631252,947.1625011245254,686.844049836892,213.26279927462932,0.0,0.0,0.0,0.0,0.0,0.0,0.0,0.0,0.0,0.0,0.0,0.0,0.0,122.72936737975104,620.2515453315195,1112.2696825965725,1464.4974004616452,1663.1756501446555,1800.2144001795136,1747.3802424997527,1572.091884376753,1267.7453193342208,829.3861386019946,360.20826098039834,0.0,0.0,0.0,0.0,0.0,0.0,0.0,0.0,0.0,0.0,0.0,0.0,0.0,134.28708066973553,664.5548260229305,1198.6756104437677,1584.199931539762,1820.0271215648647,1910.8357203962555,1873.4116131176504,1536.318778717221,1410.5625750358354,895.4290111908134,429.8283037438761,0.0,0.0,0.0,0.0,0.0,0.0,0.0,0.0,0.0,0.0,0.0,0.0,0.0,130.7092085386058,607.593164295486,1036.870432209867,1586.951600904884,1798.0130646874156,1874.5122808636995,1820.8526223744016,1624.1005412469772,1263.3419463935545,841.2190188284914,361.5840956629595,0.0,0.0,0.0,0.0,0.0,0.0,0.0,0.0,0.0,0.0,0.0,0.0,0.0,138.9649185904435,62.19053547764756,1214.91116165446,532.1939139087805,651.6212780503847,898.7310144289603,1922.39343368624,1715.459473951392,1415.2404129565434,950.4645043626722,428.17730212480274,0.0,0.0,0.0,0.0,0.0,0.0,0.0,0.0,0.0,0.0,0.0,0.0,0.0,153.8246351185748,684.367547408282,1189.319232645881,1542.097284383978,1756.736620297639,1841.49084456929,1811.4969465329852,1646.664931997451,1372.3129669476937,952.941708747753,429.8283037438761,0.0,0.0,0.0,0.0,0.0,0.0,0.0,0.0,0.0,0.0,0.0,0.0,0.0,163.18031095999075,723.4426563059604,1250.6842673139915,1636.208588409986,1866.8076066413569,1955.4148699806492,1910.5605534597432,1742.7024045790447,1399.004861745851,979.3584366093982,448.54035738317873,22.83955768698608,0.0,0.0,0.0,0.0,0.0,0.0,0.0,0.0,0.0,0.0,0.0,0.0,165.10647951557638,705.8312704127069,1226.4681729879735,1586.6764339683716,1793.885560639732,1805.1674050367335,1768.018464694641,1606.213988417211,1314.800269390754,917.7189369612458,413.31758559667145,15.685217337668009,0.0,0.0,0.0,0.0,0.0,0.0,0.0,0.0,0.0,0.0,0.0,0.0,162.35481015045403,634.5602260301556,1201.702446745402,1568.789881138606,1776.5493416829906,1846.994885256005,1822.228457056963,1578.9710577895587,1299.6653859261105,899.5572171949675,403.4108739257604,14.034215718594606,0.0,0.0,0.0,0.0,0.0,0.0,0.0,0.0,0.0,0.0,0.0,0.0,170.3353532657795,697.0259284443154,1195.37290524915,1561.0852069162634,1774.6231731274054,1868.7337751969424,1836.813006648582,1676.6595319902258,1395.427691571192,942.7598301403298,429.8283037438761,24.765726242571716,0.0,0.0,0.0,0.0,0.0,0.0,0.0,0.0,0.0,0.0,0.0,0.0,154.92530286462377,599.062287307136,1195.0977383126374,1390.4746867139718,1755.360785615078,1822.5036239934752,1779.0258441116007,1617.2213678341711,1323.331146379104,677.7635409319884,413.5927525331838,20.913389131400447,0.0,0.0,0.0,0.0,0.0,0.0,0.0,0.0,0.0,0.0,0.0,0.0,173.36218956741408,678.0387078685006,918.8196047072948,1063.563028964495,1129.881068489826,1655.4709759223133,1789.2070207625534,1104.0139725447348,1305.9949274223625,886.0733353493974,408.914212656005,18.712053639302574,0.0,0.0,0.0,0.0,0.0,0.0,0.0,0.0,0.0,0.0,0.0,0.0,147.77026055883496,530.2677453531949,1022.5617515112308,1520.9087283160652,1743.8030723250936,1390.1995197774595,1520.0832275065286,1313.699601644705,1193.9970705665887,866.8109478370703,414.6934202792327,23.389891560010543,0.0,0.0,0.0,0.0,0.0,0.0,0.0,0.0,0.0,0.0,0.0,0.0,129.33337385604466,461.748370335766,463.1249069747979,263.3452875892679,709.1339756073244,961.7470507161446,1788.3822219094873,1627.9528783581484,1352.2243766693591,943.5853309498664,424.32426305716086,30.544933865799315,0.0,0.0,0.0,0.0,0.0,0.0,0.0,0.0,0.0,0.0,0.0,0.0,200.05408436557144,726.1950276275535,1212.1587903328666,1175.285016927286,1769.1191324406896,1834.0613372834596,1806.2680727827824,1653.5448073667276,1376.9908048684017,966.4248886368524,441.6604820139022,36.04827259604399,0.0,0.0,0.0,0.0,0.0,0.0,0.0,0.0,0.0,0.0,0.0,0.0,208.8601282904336,724.5433240520093,1187.9433979633195,1514.028852946789,1756.1862864246143,1838.4640082676551,1789.4821876990654,1421.0189186233004,1359.6545859116602,926.7994458661494,440.5598142678533,35.77310565953175,0.0,0.0,0.0,0.0,0.0,0.0,0.0,0.0,0.0,0.0,0.0,0.0,206.10845892531128,711.06014416291,1039.62280353146,1126.028029422184,1443.8591782667572,1609.515991655358,1438.9054714530662,1399.2800286823633,1193.9970705665887,586.6797751640855,281.2318404190338,14.034215718594606,0.0,0.0,0.0,0.0,0.0,0.0,0.0,0.0,0.0,0.0,0.0,0.0,28.61876531021368,119.42736414160422,188.77223996856983,355.8048880397319,190.6984085241555,126.58170449092228,434.230974728072,601.5387897357461,45.67981733044286,340.3948376385761,161.52930934091734,0.2751669365122335,0.0,0.0,0.0,0.0,0.0,0.0,0.0,0.0,0.0,0.0,0.0,0.0,113.92402541135957,354.4290533571707,567.1422207152464,531.3691150557145,795.2647365180069,646.9434401296768,608.4186651050227,664.2796590864183,640.0642667168709,197.5775819369613,91.35893270441504,0.0,0.0,0.0,0.0,0.0,0.0,0.0,0.0,0.0,0.0,0.0,0.0,0.0,33.84693710394612,143.36758957463925,535.2214521668858,775.1768481961432,1308.4714298509728,1795.811729195318,1450.1880178065385,1409.4619072897865,1318.102272628901,575.3972288106133,276.2788355618136,16.51071814720471,0.0,0.0,0.0,0.0,0.0,0.0,0.0,0.0,0.0,0.0,0.0,0.0,244.63323394996536,265.54662308136585,815.6277917763829,1293.8868802593536,1838.4640082676551,1913.8632586543608,1893.7746683760265,1748.4809102458014,1462.0208980330356,536.5972868494471,270.77549683156894,22.289223813961613,0.0,0.0,0.0,0.0,0.0,0.0,0.0,0.0,0.0,0.0,0.0,0.0,291.6888859629694,883.0464990477628,1398.7296948093388,1766.0922961390552,1968.6235848897077,2037.6932937801607,2002.7456889301657,1815.6244505806687,1505.2235109783971,1058.3348571707625,495.3201405031999,53.934825425809855,0.0,0.0,0.0,0.0,0.0,0.0,0.0,0.0,0.0,0.0,0.0,0.0,288.1110138318396,851.4008974359147,1329.9351528553975,1656.571643668362,1837.6385074581185,1887.9961627092691,1873.9619469906747,1689.3179130262597,1393.5015230156062,982.6604398475448,477.433587673434,51.45832299719976,0.0,0.0,0.0,0.0,0.0,0.0,0.0,0.0,0.0,0.0,0.0,0.0,284.5338436571806,827.4599700464089,1287.5573387631014,1671.4306582400227,1867.9082743874055,1032.4677612256714,1913.3129247813365,1736.0983981027512,1450.4631847430508,997.244989439164,488.7161340269063,61.36503466811086,0.0,0.0,0.0,0.0,0.0,0.0,0.0,0.0,0.0,0.0,0.0,0.0,280.4063396094971,812.8761224112606,1279.3023306677346,1609.7918605483412,864.8847792814847,1472.4772416205,1499.4450053116404,1127.9548999342403,720.415820004326,560.537512282482,276.5540024983258,26.14156092513289,0.0,0.0,0.0,0.0,0.0,0.0,0.0,0.0,0.0,0.0,0.0,0.0,31.09526773882378,68.79454195394118,75.39854843023477,255.3654464304132,567.6925545882708,778.4788514342899,1001.3724934868476,790.0358627678038,781.7808546724369,370.6646045678632,186.0205706034475,11.832880226496735,0.0,0.0,0.0,0.0,0.0,0.0,0.0,0.0,0.0,0.0,0.0,0.0,12.10804716300897,52.00865687022422,194.82591257183904,302.42109844341724,313.15260896739426,334.6163319718192,230.0486843583463,259.7681174146089,223.7198448185649,122.17903350672655,56.411327854419966,0.0,0.0,0.0,0.0,0.0,0.0,0.0,0.0,0.0,0.0,0.0,0.0,0.0,5.228171793732438,4.953004857220204,87.23142865673151,146.94475974929827,260.5936182241456,187.12123834949645,223.44467788205267,134.28708066973553,274.07750006971577,227.0218480567117,109.79581940720536,2.751669365122336,0.0,0.0,0.0,0.0,0.0,0.0,0.0,0.0,0.0,0.0,0.0,0.0,298.01772550275075,813.1505873913021,1252.0601019965527,1559.7086702772317,979.3584366093982,847.8237272612555,1136.2099080296075,892.6773418256912,1412.7632085714624,465.3262424668957,480.1852570385564,64.39187096974543,0.0,0.0,0.0,0.0,0.0,0.0,0.0,0.0,0.0,0.0,0.0,0.0,82.82875767253577,406.7128771639072,817.5539603319686,937.256491410085,818.1042942049929,892.4021748891788,1048.978479372876,900.3827180045042,1207.4809524121588,691.2474227775584,354.4290533571707,49.2569875051019,0.0,0.0,0.0,0.0,0.0,0.0,0.0,0.0,0.0,0.0,0.0,0.0,330.2136609876234,862.1324079598917,1179.138055994928,1382.2196786186048,1615.2944973221147,1690.418580772308,1622.9998735009283,1476.8806145611666,1205.554783856573,709.959476416861,361.5840956629595,52.83415767976092,0.0,0.0,0.0,0.0,0.0,0.0,0.0,0.0,0.0,0.0,0.0,0.0,319.4814485071757,740.5037083261897,935.055155917987,1052.0053156745105,1103.4636386717104,1227.2936737975103,1482.9342871644358,1259.7647762188951,727.5708623101148,401.759872306687,199.50375049254697,21.18855606791268,0.0,0.0,0.0,0.0,0.0,0.0,0.0,0.0,0.0,0.0,0.0,0.0,157.67697222974607,383.5981525404089,607.0428304224615,1629.8797488702046,1801.3150679255627,1880.566655423439,1829.1083324262397,1678.8608674823236,1397.3538601267776,962.8477184621936,230.3238512948585,67.69387420789224,0.0,0.0,0.0,0.0,0.0,0.0,0.0,0.0,0.0,0.0,0.0,0.0,331.58949567018465,828.0103039194333,767.4714720173301,1070.7173693138134,1373.963968566767,1798.5633985604402,1741.0514029599713,1587.501934777909,1326.0828157442263,943.034997076842,274.6278339427402,39.35027583419079,0.0,0.0,0.0,0.0,0.0,0.0,0.0,0.0,0.0,0.0,0.0,0.0,56.411327854419966,286.46001221276623,500.2738473168907,545.1274618813262,802.9694107403495,1158.4998338000398,1269.6714878898065,1232.5225475477134,1397.3538601267776,657.4004856736124,213.81313314765384,28.06843143718921,0.0,0.0,0.0,0.0,0.0,0.0,0.0,0.0,0.0,0.0,0.0,0.0,371.2149384408877,929.826282167784,1400.6565653213952,1728.1178549874253,1917.4404288290195,1990.6376417671568,1938.35381796042,1766.0922961390552,1476.605447624654,1052.0053156745105,523.6637388769012,78.15021779535711,0.0,0.0,0.0,0.0,0.0,0.0,0.0,0.0,0.0,0.0,0.0,3.85233711117127,379.19548155621305,904.2350551156756,1358.553918165611,1630.430082743229,1819.751954628353,1890.1974982013671,1908.9095518406696,1677.4850327997624,1397.0786931902653,996.144321693115,507.4281876662088,80.90258911695014,0.0,0.0,0.0,0.0,0.0,0.0,0.0,0.0,0.0,0.0,0.0,14.034215718594606,397.082034385979,931.7524507233696,1377.8163056779383,1689.042746089747,1859.377397399056,1911.38605426928,1865.706938895308,1710.506469094172,1439.4558053260907,1031.6422604161346,529.9925784166827,86.13076091068257,0.0,0.0,0.0,0.0,0.0,0.0,0.0,0.0,0.0,0.0,0.0,10.181878607423338,342.59687508714467,661.2528227847837,998.0704902487006,1122.1756923110129,1395.9780254442164,1198.9507773802795,1573.7428859958263,854.1525668010371,892.9525087622031,975.2309325617148,477.9839215464584,77.87505085884487,0.0,0.0,0.0,0.0,0.0,0.0,0.0,0.0,0.0,0.0,0.0,0.0,317.0049460785655,489.2664678999307,455.1443638594724,503.0255166820131,798.8419066926659,1041.824139023558,620.801879204544,582.0012352869069,597.9616195610872,371.2149384408877,112.54748877232768,45.95498426695509,0.0,0.0,0.0,0.0,0.0,0.0,0.0,0.0,0.0,0.0,0.0,0.0,127.13203836394676,380.0209823657498,360.20826098039834,1718.211845272985,1954.3142022346003,2039.8946292722585,1936.1524824683224,1777.9251763655518,1490.6389613867782,1065.764364456593,526.9657421150481,86.4059278471948,0.0,0.0,0.0,0.0,0.0,0.0,0.0,0.0,0.0,0.0,0.0,31.09526773882378,438.3584787757554,1010.1785374117096,1510.4523847286005,1849.746554621128,2049.800638986699,2112.266341400859,2044.5724671929663,1853.0485578592743,1503.2973424228114,794.9895695814948,434.7813086010964,93.0099343234884,0.0,0.0,0.0,0.0,0.0,0.0,0.0,0.0,0.0,0.0,0.0,32.47110242138495,439.7343134583166,992.8423184549682,1458.7188947948885,1774.0728392543806,1959.2672070918209,2018.706073204346,1957.341038536235,1782.6030142862598,1486.2362904025824,1035.2194305907935,537.6979545954958,95.48643675209853,0.0,0.0,0.0,0.0,0.0,0.0,0.0,0.0,0.0,0.0,0.0,38.249608088141855,452.1175275578378,997.7953233121884,1432.576631913285,1728.943355796962,1895.976705824595,1946.6088260557876,1885.5196602806595,1721.5138485111318,1448.812183123977,1040.9986382140214,538.5234554050326,93.0099343234884,0.0,0.0,0.0,0.0,0.0,0.0,0.0,0.0,0.0,0.0,0.0,41.00127745326419,443.8618175060001,982.9356067840572,1429.274628675138,1730.8702263090186,1665.652152573266,1977.1537599215865,1922.9437675592644,1760.313790472298,1476.8806145611666,1031.3670934796226,534.9462852303735,94.11060206953734,0.0,0.0,0.0,0.0,0.0,0.0,0.0,0.0,0.0,0.0,0.0,43.47777988187429,429.8283037438761,947.71283499755,971.1034285140312,871.4887857577783,980.459104355447,440.83498120436553,1375.3398032493285,1716.0098078244166,1415.5155798930557,1004.4000317449528,504.4013513645743,95.76160368861076,0.0,0.0,0.0,0.0,0.0,0.0,0.0,0.0,0.0,0.0,0.0,42.10194519931312,417.1699227078428,601.5387897357461,1074.8455753179674,1662.0749823986068,1429.274628675138,1911.6612212057923,1852.2230570497372,1702.250759042334,1436.7041359609684,1039.3476365949475,530.2677453531949,97.13814032764262,0.0,0.0,0.0,0.0,0.0,0.0,0.0,0.0,0.0,0.0,0.0,48.98182056858965,424.599429993673,913.3155640205792,1087.779123290513,1323.0559794425917,580.900567540858,1250.4091003774793,1581.7234291111515,1324.9821479981774,771.0486421919891,500.2738473168907,233.9010214695176,89.43276414882938,0.0,0.0,0.0,0.0,0.0,0.0,0.0,0.0,0.0,0.0,0.0,41.00127745326419,72.09654519208797,289.7627174073838,376.9941460641152,466.1517432764324,886.8981342024634,1314.525102454242,780.1298530533634,734.1748687864082,443.3114836329757,370.6646045678632,223.44467788205267,97.13814032764262,0.0,0.0,0.0,0.0,0.0,0.0,0.0,0.0,0.0,0.0,0.0,26.41742981811581,151.62329962647695,973.5799309426412,1035.4945975273058,1232.247380611201,1307.645929041436,1233.3480483572505,1387.9981842853615,1239.6768878970315,1160.4253003991548,803.519744613374,517.8852332101444,105.3931484230096,0.0,0.0,0.0,0.0,0.0,0.0,0.0,0.0,0.0,0.0,0.0,2.751669365122336,25.59122705210841,104.01731374044844,160.42864159486842,166.20784921809602,2