clear
set defaultbasefrequency=60
new object=circuit.lehigh basekv=115 pu=1.0001 phases=3 bus1=sourcebus angle=30 mvasc3=20000 mvasc1=21000
edit object=vsource.source basekv=115 bus1=sourcebus.1.2.3 pu=1.00 r1=0 x1=0.0001 r0=0 x0=0.0001
new object=vsource.secondsource basekv=4.16 bus1=680.1.2.3 pu=1.00 r1=0 x1=0.0001 r0=0 x0=0.0001
new object=transformer.sub phases=3 windings=2 xhl=0.008 buses=[sourcebus.1.2.3,650.1.2.3] conns=[delta,wye] kvs=[115,4.16] kvas=[5000,5000] %rs=[0.0005,0.0005]
new object=transformer.reg1 phases=1 bank=reg1 xhl=0.01 kvas=[1666,1666] buses=[650.1,rg60.1] kvs=[2.4,2.4] %loadloss=0.01
new object=regcontrol.reg1 transformer=reg1 winding=2 vreg=121 band=2 ptratio=20 ctprim=700 r=3 x=9
new object=transformer.reg2 phases=1 bank=reg1 xhl=0.01 kvas=[1666,1666] buses=[650.2,rg60.2] kvs=[2.4,2.4] %loadloss=0.01
new object=regcontrol.reg2 transformer=reg2 winding=2 vreg=121 band=2 ptratio=20 ctprim=700 r=3 x=9
new object=transformer.reg3 phases=1 bank=reg1 xhl=0.01 kvas=[1666,1666] buses=[650.3,rg60.3] kvs=[2.4,2.4] %loadloss=0.01
new object=regcontrol.reg3 transformer=reg3 winding=2 vreg=121 band=2 ptratio=20 ctprim=700 r=3 x=9
new object=transformer.xfm1 phases=3 windings=2 xhl=2 buses=[633.1.2.3,634.1.2.3] conns=[wye,wye] kvs=[4.16,0.480] kvas=[500,500] %rs=[0.55,0.55] xht=1 xlt=1
new object=linecode.mtx601 nphases=3 basefreq=60 rmatrix=[0.3465|0.1560,0.3375|0.1580,0.1535,0.3414] xmatrix=[1.0179|0.5017,1.0478|0.4236,0.3849,1.0348] units=mi
new object=linecode.mtx602 nphases=3 basefreq=60 rmatrix=[0.7526|0.1580,0.7475|0.1560,0.1535,0.7436] xmatrix=[1.1814|0.4236,1.1983|0.5017,0.3849,1.2112] units=mi
new object=linecode.mtx603 nphases=2 basefreq=60 rmatrix=[1.3238|0.2066,1.3294] xmatrix=[1.3569|0.4591,1.3471] units=mi
new object=linecode.mtx604 nphases=2 basefreq=60 rmatrix=[1.3238|0.2066,1.3294] xmatrix=[1.3569|0.4591,1.3471] units=mi
new object=linecode.mtx605 nphases=1 basefreq=60 rmatrix=[1.3292] xmatrix=[1.3475] units=mi
new object=linecode.mtx606 nphases=3 units=mi rmatrix=[0.791721|0.318476,0.781649|0.28345,0.318476,0.791721] xmatrix=[0.438352|0.0276838,0.396697|-0.0184204,0.0276838,0.438352] cmatrix=[383.948|0,383.948|0,0,383.948]
new object=linecode.mtx607 nphases=1 basefreq=60 rmatrix=[1.3425] xmatrix=[0.5124] cmatrix=[236] units=mi
new object=loadshape.solar_634_shape npts=8760 interval=1 useactual=yes mult=[0.0,0.0,0.0,0.0,0.0,0.0,0.0,0.0,2.415434683495835,7.323236821401694,10.337602663584835,31.76624049929427,7.284452531932557,17.023124036830083,25.467290404692204,27.418585230606585,13.699755494942028,0.9082517624042644,0.0,0.0,0.0,0.0,0.0,0.0,0.0,0.0,0.0,0.0,0.0,0.0,0.0,0.0,6.337734384071199,16.095798033703296,22.530175237435287,0.8888596176696967,48.36432687202407,17.293660351077907,62.798440634783326,43.18598841987039,22.80071155168311,1.9516127299264192,0.0,0.0,0.0,0.0,0.0,0.0,0.0,0.0,0.0,0.0,0.0,0.0,0.0,0.0,18.588165488113315,43.34048976972285,57.58131789316052,24.40453729243548,43.39834829991451,43.28263123953119,35.36014535543014,30.703487387037544,16.11487227442582,1.2754308963128835,0.0,0.0,0.0,0.0,0.0,0.0,0.0,0.0,0.0,0.0,0.0,0.0,0.0,0.0,28.28837060755375,64.80791189490142,92.01413724546389,106.61578642256931,104.79801128171265,105.5085267486267,80.52572205828666,68.73784129176579,41.31162636487019,8.115453619410593,0.0,0.0,0.0,0.0,0.0,0.0,0.0,0.0,0.0,0.0,0.0,0.0,0.0,0.0,30.76166382124125,68.63388667982804,96.57415239419568,113.500633611365,114.14979360395492,115.21858689244046,100.9605919523525,76.96170017928274,41.69819764351338,7.922167980089,0.0,0.0,0.0,0.0,0.0,0.0,0.0,0.0,0.0,0.0,0.0,0.0,0.0,0.0,24.307894472774684,57.56192574842595,90.23610010611245,80.86492563913558,91.41488818276454,94.2941448198298,94.6613239537384,71.82182811258616,38.87711744065184,7.26537829121003,0.0,0.0,0.0,0.0,0.0,0.0,0.0,0.0,0.0,0.0,0.0,0.0,0.0,0.0,24.674755702671263,24.500862208084236,87.55044701238083,100.41920141984482,89.92741531041956,86.10144052549296,72.57557852513796,37.09939820531245,19.593060070178375,2.08672193504431,0.0,0.0,0.0,0.0,0.0,0.0,0.0,0.0,0.0,0.0,0.0,0.0,0.0,0.0,25.11918551150611,58.56682033049102,15.458082585546856,20.365884723452712,45.58203095863166,52.808624960372555,43.26323909479662,28.036908534028456,14.878225667582074,1.719860705147732,0.0,0.0,0.0,0.0,0.0,0.0,0.0,0.0,0.0,0.0,0.0,0.0,0.0,0.0,25.81507739386625,59.26239430883912,31.76624049929427,67.57113356757131,52.92465992476792,24.713539992140397,31.688989824368036,26.51065137221436,13.738221880399124,6.492235733923658,0.0,0.0,0.0,0.0,0.0,0.0,0.0,0.0,0.0,0.0,0.0,0.0,0.0,0.0,11.96082054907177,29.563483599854596,47.62996860420683,81.63806819642194,47.37882443469358,61.87079672764451,62.83690702024043,50.702510880593685,28.28837060755375,4.96597857210956,0.0,0.0,0.0,0.0,0.0,0.0,0.0,0.0,0.0,0.0,0.0,0.0,0.0,0.0,31.14791719587239,68.94288937953294,96.49690171926946,111.3846645072128,110.40965290227967,112.44328486731295,92.91889206373568,78.74100893468234,47.12768026518032,11.612715655885678,0.0,0.0,0.0,0.0,0.0,0.0,0.0,0.0,0.0,0.0,0.0,0.0,0.0,0.0,28.77126680184569,65.34898452339708,91.70481664174692,104.29508713466204,100.33082410449713,100.1728258105122,75.33117050151883,62.80765985113256,46.02646076746651,11.438822161298653,0.0,0.0,0.0,0.0,0.0,0.0,0.0,0.0,0.0,0.0,0.0,0.0,0.0,0.0,28.15294349842382,64.61462625557984,90.98985051866426,83.9371500115104,93.17321527336937,84.72936680951928,76.45941184025624,61.00132925470938,36.191146442908185,8.753169067567034,0.0,0.0,0.0,0.0,0.0,0.0,0.0,0.0,0.0,0.0,0.0,0.0,0.0,0.0,11.72875062028104,27.7857643645152,50.354723891419624,64.18958859147953,73.54168881773388,67.49356498863303,39.92047840817399,32.500598767111505,18.337021318600065,2.994973697448574,0.0,0.0,0.0,0.0,0.0,0.0,0.0,0.0,0.0,0.0,0.0,0.0,0.0,0.0,6.183233034218741,16.598086372729803,77.09712728841266,96.11064834463832,103.50922841689398,104.69691780588325,87.80572393405063,66.55511234508477,44.770422015888194,11.32310510091533,0.0,0.0,0.0,0.0,0.0,0.0,0.0,0.0,0.0,0.0,0.0,0.0,0.0,0.0,25.602399609810092,59.494146333617806,83.9177578667758,70.97175278438559,83.4154695277493,105.49517478012096,65.63859507836742,29.988521263954873,16.791372012051397,3.033757986917709,0.0,0.0,0.0,0.0,0.0,0.0,0.0,0.0,0.0,0.0,0.0,0.0,0.0,0.0,26.471867082745224,63.66790810771847,92.94146324859068,113.26888158658628,113.62938473624205,114.56338672362168,100.43763985254328,77.79619821089324,46.87653609566708,12.211964718585024,0.0,0.0,0.0,0.0,0.0,0.0,0.0,0.0,0.0,0.0,0.0,0.0,0.0,0.0,28.90669391097563,65.11691459460633,94.21657624089153,111.5878051709077,113.05556799450603,114.09384249783554,101.21014660180556,75.72251034034265,47.7075371831451,12.598218093216168,0.0,0.0,0.0,0.0,0.0,0.0,0.0,0.0,0.0,0.0,0.0,0.0,0.0,0.0,30.491127506993426,68.36335036558022,95.87857841584758,112.26430490853328,116.01016788242528,116.79888773630172,104.03408794077548,77.55935972192188,50.122653962628895,13.738221880399124,0.0,0.0,0.0,0.0,0.0,0.0,0.0,0.0,0.0,0.0,0.0,0.0,0.0,0.0,29.930662733763217,66.75952462482783,93.34710876795636,109.30747969252975,115.27835284670438,111.8195571956864,99.68516105603962,78.60431020950425,47.62996860420683,12.810895877272332,0.0,0.0,0.0,0.0,0.0,0.0,0.0,0.0,0.0,0.0,0.0,0.0,0.0,0.0,7.70980810004488,19.303131611195987,29.235088755415113,16.6947291923906,48.40311116149321,12.907538696933123,13.467685566151298,0.1932856393215935,0.0,0.0,0.0,0.0,0.0,0.0,0.0,0.0,0.0,0.0,0.0,0.0,0.0,0.0,0.0,0.0,7.110559037345531,20.887565207213783,59.03064228406044,63.0495848042966,103.83857697336958,104.634608619523,55.0307740045468,47.7460035686022,27.766372219780628,6.163840889484174,0.0,0.0,0.0,0.0,0.0,0.0,0.0,0.0,0.0,0.0,0.0,0.0,0.0,0.0,8.038202944484363,20.84909882175669,24.230643797848455,60.305755276361275,117.7119080588866,118.73047251346946,111.6459816051114,88.13030393034562,53.17580409428118,15.071511306903664,0.0,0.0,0.0,0.0,0.0,0.0,0.0,0.0,0.0,0.0,0.0,0.0,0.0,0.0,31.88227546368963,70.19892813111127,97.82987324176196,114.38949322903468,116.19709544150602,118.35057721907916,103.3938292605227,78.00760437890122,52.63473146578553,15.419298296077717,0.0,0.0,0.0,0.0,0.0,0.0,0.0,0.0,0.0,0.0,0.0,0.0,0.0,0.0,30.37509254259806,67.08791946926732,93.32803452723384,109.385048271468,115.97392682505246,112.80505963301688,101.288986796792,80.82614134966644,50.52861738600666,14.89761781231664,0.0,0.0,0.0,0.0,0.0,0.0,0.0,0.0,0.0,0.0,0.0,0.0,0.0,0.0,20.15352484340859,46.20035426205354,53.2530547692074,79.04874001833909,88.49748306425423,84.80693538845755,77.212844348796,56.78910109515162,34.78060634147741,9.93163924020708,0.0,0.0,0.0,0.0,0.0,0.0,0.0,0.0,0.0,0.0,0.0,0.0,0.0,0.0,23.96010748360063,55.977492152408146,54.2385572065379,100.74791416829636,106.29343175435864,77.1162015291352,10.704781797493451,74.97162106389922,44.28720791758421,12.46310888809828,0.0,0.0,0.0,0.0,0.0,0.0,0.0,0.0,0.0,0.0,0.0,0.0,0.0,0.0,6.782164192906047,10.917141677537574,16.462977167611914,25.44789825995764,20.095348409204888,13.950899664455283,14.144185303776876,5.487659055870639,2.8210802028615483,0.0578585301916612,0.0,0.0,0.0,0.0,0.0,0.0,0.0,0.0,0.0,0.0,0.0,0.0,0.0,0.0,31.92074184914673,69.56121268295482,81.32906549671704,88.27622187187293,93.81919622583888,64.50494937142531,57.75298605966325,57.11272737941047,52.76984067090342,16.71412133712517,0.0,0.0,0.0,0.0,0.0,0.0,0.0,0.0,0.0,0.0,0.0,0.0,0.0,0.0,30.3172340124064,67.03006093907567,93.79153857679124,109.82852436826671,107.68744084716324,107.9923107947116,85.50950325507057,66.00577421227602,43.92034668768763,16.598086372729803,0.0,0.0,0.0,0.0,0.0,0.0,0.0,0.0,0.0,0.0,0.0,0.0,0.0,0.0,9.468135190649704,29.04180311609352,49.446472129015355,50.04540328770267,64.38287423080114,60.80804361538778,54.895346895416864,39.49544074407371,24.230643797848455,6.9560576874930735,0.0,0.0,0.0,0.0,0.0,0.0,0.0,0.0,0.0,0.0,0.0,0.0,0.0,0.0,31.90166760842419,70.12167745618503,99.37584045232263,111.96356771314144,109.89750953887987,110.34797952394352,85.70596793451259,72.07615132221984,54.760237690298965,18.2791627884084,0.0,0.0,0.0,0.0,0.0,0.0,0.0,0.0,0.0,0.0,0.0,0.0,0.0,0.0,32.01738466880752,68.2667075459194,94.70010824320754,110.9694818674858,111.76646722567534,112.30022806189405,97.39784168939676,74.244892492371,54.74084554556442,18.626949777582453,0.0,0.0,0.0,0.0,0.0,0.0,0.0,0.0,0.0,0.0,0.0,0.0,0.0,0.0,31.785632644028833,27.573404484471077,64.67248478577149,80.36231939609704,91.70481664174692,89.83045458674674,77.38673784338302,22.16299610352667,16.018547358777067,10.56935468836352,0.0,0.0,0.0,0.0,0.0,0.0,0.0,0.0,0.0,0.0,0.0,0.0,0.0,0.0,0.0,24.55903864228794,66.21845199633219,92.86421257366445,108.86114245962266,109.79196540688191,108.98893987246358,90.08159875626,56.84695962534329,19.99870558954409,0.0,0.0,0.0,0.0,0.0,0.0,0.0,0.0,0.0,0.0,0.0,0.0,0.0,0.0,22.95521290153557,61.2136891347535,87.5358234278269,93.11535674317768,98.7832673738762,83.90758493839046,60.63033527265625,59.39464237784863,34.23953371298176,16.655944902921465,0.0,0.0,0.0,0.0,0.0,0.0,0.0,0.0,0.0,0.0,0.0,0.0,0.0,0.0,16.888014831712194,22.414140273039926,16.888014831712194,25.44789825995764,16.84923054224306,70.35342948096371,64.07355362708418,46.509356961758456,16.15365656389496,2.222149044174242,0.0,0.0,0.0,0.0,0.0,0.0,0.0,0.0,0.0,0.0,0.0,0.0,0.0,0.0,1.256038751578316,8.115453619410593,12.694860912876964,45.42721170476715,54.682987015372746,25.467290404692204,36.88672042125629,16.076405888968726,9.757745745620054,18.375805608069196,0.0,0.0,0.0,0.0,0.0,0.0,0.0,0.0,0.0,0.0,0.0,0.0,0.0,0.0,7.999418655015228,7.613165280384083,29.5250172143975,57.83246206267378,53.04037698515124,66.35356120145009,72.51771999494629,87.45412209673208,56.53795692563836,20.28863404852648,0.0,0.0,0.0,0.0,0.0,0.0,0.0,0.0,0.0,0.0,0.0,0.0,0.0,0.0,6.414985058997428,16.288765769012848,30.471735362258855,106.84626683129984,42.58705726118309,42.354987332392355,48.074398413041685,36.17175429817361,0.8888596176696967,18.858701802361143,0.0,0.0,0.0,0.0,0.0,0.0,0.0,0.0,0.0,0.0,0.0,0.0,0.0,0.0,10.260351988658604,45.60110519935419,98.41131967978694,105.1906227365846,102.04909528958464,101.55602616690734,69.93761103321266,63.503551733492706,59.18514363391289,22.31749745337913,0.0,0.0,0.0,0.0,0.0,0.0,0.0,0.0,0.0,0.0,0.0,0.0,0.0,3.265510011696396,37.62107868907353,75.08765602829459,98.47998694638804,105.09175458883954,101.27881386840666,84.49062089647566,64.35871352588593,63.48384168474609,61.214007038765544,23.45750124056208,0.0,0.0,0.0,0.0,0.0,0.0,0.0,0.0,0.0,0.0,0.0,0.0,0.0,3.323368541888058,36.26839711783441,68.58111461382904,79.6982179149411,87.2849971623257,93.50828610206172,63.64756225094778,57.38517111773055,56.712486228249475,56.906407675595155,22.742535117479413,0.0,0.0,0.0,0.0,0.0,0.0,0.0,0.0,0.0,0.0,0.0,0.0,0.0,4.193153918835228,38.123367028100034,75.10704817302916,103.8023359159968,111.20028018022836,109.11546566925632,103.85860492612824,74.45089429217428,70.68818240564404,59.61018129801316,12.86875440746399,0.0,0.0,0.0,0.0,0.0,0.0,0.0,0.0,0.0,0.0,0.0,0.0,0.0,0.077250674926229,21.177493666196177,48.48036183641943,68.51785171543267,78.00506114680489,92.07199577565557,97.44361986713082,64.80791189490142,57.00146097519574,40.40337460246594,13.699755494942028,0.0,0.0,0.0,0.0,0.0,0.0,0.0,0.0,0.0,0.0,0.0,0.0,0.0,0.92732600312679,34.1234987485864,68.42120889577187,95.87857841584758,112.61209189770732,112.60764124153872,113.59282577485716,98.57535815000068,75.71201950794526,55.533062343573306,21.46742212517857,0.0,0.0,0.0,0.0,0.0,0.0,0.0,0.0,0.0,0.0,0.0,0.0,0.0,0.0,5.081695632492883,7.207201857006328,22.858570081874777,31.97891828335043,34.10442450786387,41.29223422013564,26.297973588158197,22.82010369641768,24.288502328040117,9.023705381814857,0.0,0.0,0.0,0.0,0.0,0.0,0.0,0.0,0.0,0.0,0.0,0.0,0.0,0.0,0.5604647732302128,24.92621777619656,44.345384351787914,57.4074243985735,86.81608874456359,99.20194695773564,77.61880777217374,96.01400552497752,36.22993073237732,12.404932453894576,0.0,0.0,0.0,0.0,0.0,0.0,0.0,0.0,0.0,0.0,0.0,0.0,0.0,4.077118954439864,12.656394527419872,27.28347602548869,48.093790557776245,66.56623898550625,116.12556703879656,118.34994141105508,113.24948944185172,93.0768903577206,62.798440634783326,25.33186329556227,0.0,0.0,0.0,0.0,0.0,0.0,0.0,0.0,0.0,0.0,0.0,0.0,0.0,5.217122741622816,38.70322394606482,74.85558609950387,92.89949991900112,97.7977649365457,104.8301195869289,81.9562901124761,69.45058208676417,68.56903426137144,60.80804361538778,24.65568146194874,0.0,0.0,0.0,0.0,0.0,0.0,0.0,0.0,0.0,0.0,0.0,0.0,0.0,4.7533007880534,14.723724317729612,61.60026041339669,74.44994058013815,97.01953591506668,104.28141726214425,105.84359757731907,76.23115675961,67.57304099164355,60.363613806552934,23.438426999839553,0.0,0.0,0.0,0.0,0.0,0.0,0.0,0.0,0.0,0.0,0.0,0.0,0.0,2.106114079778877,7.825525160428203,38.50993830674322,36.22993073237732,50.026011142968095,68.67235306528512,55.99688429714272,71.43557473795501,35.20564400557769,10.975318111741275,0.0193921447345677,0.0,0.0,0.0,0.0,0.0,0.0,0.0,0.0,0.0,0.0,0.0,0.0,0.0,0.0,1.0048945820650612,0.5022883390265096,6.0478059250888085,39.22490442982589,27.225617495297033,62.81751487550586,68.15067258152403,45.11820900506225,4.946586427374993,23.186964926314257,0.0,0.0,0.0,0.0,0.0,0.0,0.0,0.0,0.0,0.0,0.0,0.0,0.0,6.975449832227642,43.70766890363147,82.73928769413575,110.83437266236793,121.41485399115292,120.45414806676172,121.04894647329246,90.20621712898048,81.33415196090971,65.81280647696647,27.824548653984337,0.0,0.0,0.0,0.0,0.0,0.0,0.0,0.0,0.0,0.0,0.0,0.0,0.0,7.381095351593354,42.857593575430904,78.7972779448138,104.45753608481556,120.03165363475776,119.5605198889114,119.7706544408712,95.78479673229516,80.88558939991832,63.74515878264469,26.83904621665384,0.0,0.0,0.0,0.0,0.0,0.0,0.0,0.0,0.0,0.0,0.0,0.0,0.0,4.907802137905858,38.79986676572561,60.86622004959149,84.07225921662828,101.9845607751401,102.04241930533176,102.08120359480093,61.19461489403097,42.87666781615343,58.77918021053512,25.75690095966255,0.0,0.0,0.0,0.0,0.0,0.0,0.0,0.0,0.0,0.0,0.0,0.0,0.0,2.8016880581269805,23.863464663939837,53.61991599910399,64.01569509689253,78.00506114680489,76.1306990918047,92.29802552821748,69.83174899720264,35.26382043978139,11.033176641932938,10.93653382227214,0.0,0.0,0.0,0.0,0.0,0.0,0.0,0.0,0.0,0.0,0.0,0.0,0.0,5.989947394897148,29.370197960533,39.572691418999945,65.56134440344118,91.04802695286796,89.79198820128964,82.62325272974039,71.53221755761581,69.17464140431163,40.152230432952685,9.313633840797248,0.0,0.0,0.0,0.0,0.0,0.0,0.0,0.0,0.0,0.0,0.0,0.0,0.0,3.1882593367701673,17.680231629721096,46.60599978141925,48.093790557776245,60.18972031196591,73.2517603587515,85.05776165395876,75.08733812428254,66.50838045531458,48.22921766690618,14.974868487242867,0.0,0.0,0.0,0.0,0.0,0.0,0.0,0.0,0.0,0.0,0.0,0.0,0.0,8.617741958437103,43.55316755377901,78.10170396646569,102.83463610334064,111.9209685755278,109.48804917136964,109.13962637417151,72.97041530809425,72.36321864509384,58.23810758203948,25.293079006093137,0.0,0.0,0.0,0.0,0.0,0.0,0.0,0.0,0.0,0.0,0.0,0.0,0.0,9.429350901180571,46.6638583116109,84.1692199403011,107.768824274246,112.43470145898785,110.34321096376289,105.94532686117256,73.85355265354718,72.12097578791776,62.87569130970957,30.181806903276467,0.0,0.0,0.0,0.0,0.0,0.0,0.0,0.0,0.0,0.0,0.0,0.0,0.0,9.178206731667316,42.66430793610932,72.80733054991664,111.31631514462372,116.25940462786627,115.76633550518898,116.90443186829968,84.85462099026385,80.39506350933736,59.06910866951752,25.38972182575393,0.0,0.0,0.0,0.0,0.0,0.0,0.0,0.0,0.0,0.0,0.0,0.0,0.0,9.757745745620054,4.367047413422254,85.30922372748405,37.36993451956027,45.75592445321869,63.10744333448825,121.35254480479266,120.45669129885805,99.37615835633471,66.74013248009327,30.065771938881102,0.0,0.0,0.0,0.0,0.0,0.0,0.0,0.0,0.0,0.0,0.0,0.0,0.0,10.80142461715425,48.05532417231916,82.47701688420105,93.59539180136126,98.9387224357648,107.34474032218186,78.36111364029203,71.47372321940006,69.63337689368836,66.9140259746803,30.181806903276467,0.0,0.0,0.0,0.0,0.0,0.0,0.0,0.0,0.0,0.0,0.0,0.0,0.0,11.458214306033218,50.79915370025448,87.82098332662865,113.66117513744624,116.64152525034088,115.29043319916198,111.6326296366056,78.25366208422182,77.81272921951943,68.76899588494591,31.49570418504644,1.6038257407523675,0.0,0.0,0.0,0.0,0.0,0.0,0.0,0.0,0.0,0.0,0.0,0.0,11.59364141516315,49.56250709341073,86.12051476621549,110.30442667429374,114.3805919166975,113.10198198026418,108.24885933242956,76.86823639974236,75.92851214014593,64.4407327609928,29.022410971358948,1.101537401725858,0.0,0.0,0.0,0.0,0.0,0.0,0.0,0.0,0.0,0.0,0.0,0.0,11.400355775841556,44.55774423183203,84.38157982034522,110.15787292474236,115.07044362282883,113.48283098669062,112.8219085456551,77.5806592907287,76.94421545862042,63.165619768691954,28.326836993010843,0.9855024373304936,0.0,0.0,0.0,0.0,0.0,0.0,0.0,0.0,0.0,0.0,0.0,0.0,11.96082054907177,48.944183789988855,83.9371500115104,109.61680029624668,117.49859446680637,117.07355680270608,119.04678700545136,85.31144905556836,81.834850779876,66.19905985159761,30.181806903276467,1.738934945870258,0.0,0.0,0.0,0.0,0.0,0.0,0.0,0.0,0.0,0.0,0.0,0.0,10.87867529208048,42.065376777422,83.91807577078787,97.6369055064524,113.65132011307291,110.42141535072524,110.97075348353395,86.85137608990026,71.02134581026415,47.59150221874974,29.04180311609352,1.4683986316224351,0.0,0.0,0.0,0.0,0.0,0.0,0.0,0.0,0.0,0.0,0.0,0.0,12.17318042911589,47.610894363484306,64.51830133993107,74.68169260491683,79.33835057330944,105.3196917654737,106.05277841724278,77.52216495251297,91.70481664174692,62.21858371681856,28.713408271654036,1.3138972817699772,0.0,0.0,0.0,0.0,0.0,0.0,0.0,0.0,0.0,0.0,0.0,0.0,10.376069049041927,37.23450741043034,71.80275387186363,93.33375679945064,99.84824581421722,97.61751336171784,87.41692732732315,62.59879691522091,62.70275152715867,54.56568043492921,29.11905379101974,1.6422921262094612,0.0,0.0,0.0,0.0,0.0,0.0,0.0,0.0,0.0,0.0,0.0,0.0,9.08156391200652,32.42334809218528,32.51999091184607,18.49184057246456,49.794259118189416,67.53234927810216,120.51137078892928,114.31224255410844,94.95093450870874,66.25691838178929,29.79523562463328,2.1448983692480126,0.0,0.0,0.0,0.0,0.0,0.0,0.0,0.0,0.0,0.0,0.0,0.0,14.04754248411608,50.99212143556403,85.11593808816247,82.52660991007961,115.92783074330636,114.77320337156948,113.82235247155158,113.06764834696364,78.93524828604006,67.86074412254166,31.012807990754503,2.5311517438791578,0.0,0.0,0.0,0.0,0.0,0.0,0.0,0.0,0.0,0.0,0.0,0.0,14.665865787537951,50.876404375180705,83.4154695277493,102.53135567585252,98.81823681520083,98.81601148711654,80.32639624273628,62.0799775675682,62.42585713267,62.6086519395942,30.935557315828277,2.512077503156632,0.0,0.0,0.0,0.0,0.0,0.0,0.0,0.0,0.0,0.0,0.0,0.0,14.47258014821636,49.9293683233073,73.00061618923824,79.06781425906162,98.2771641867052,98.8474839843087,98.51559219573676,76.30300306633153,62.56923184210099,41.19559140047484,19.74756142003084,0.9855024373304936,0.0,0.0,0.0,0.0,0.0,0.0,0.0,0.0,0.0,0.0,0.0,0.0,2.0094712601180804,8.385989933658415,13.25532568610718,24.98407630638822,13.390434891225071,8.888278272684923,30.491127506993426,42.23927027200903,3.207651481504735,23.901931049396932,11.342497245649897,0.0193921447345677,0.0,0.0,0.0,0.0,0.0,0.0,0.0,0.0,0.0,0.0,0.0,0.0,7.999418655015228,24.887433486727424,39.8238355885132,37.311758085356566,55.842065043278225,45.42721170476715,42.722166466300976,46.64478407088838,44.94431551047522,13.873648989529052,6.414985058997428,0.0,0.0,0.0,0.0,0.0,0.0,0.0,0.0,0.0,0.0,0.0,0.0,0.0,2.3766503940267,10.067066349337011,37.582294399604386,54.43152494184745,91.87871013633396,96.3325453450437,94.620632240197,93.39606598581086,68.27783418634088,40.40337460246594,19.399774430856784,1.159395931917519,0.0,0.0,0.0,0.0,0.0,0.0,0.0,0.0,0.0,0.0,0.0,0.0,17.177625386682543,18.64634192231702,57.27199728944356,90.85474131354636,101.1621430959872,101.23557892276892,100.6986390464298,83.32359526826914,63.62912381824933,37.67893721926518,19.01352105622564,1.565041451283232,0.0,0.0,0.0,0.0,0.0,0.0,0.0,0.0,0.0,0.0,0.0,0.0,20.481919687848073,62.006223836774446,98.2167624244172,107.466497558794,104.79705756967653,105.03326025062375,76.40886510234154,68.53438272405884,69.34567376279028,71.59802368810851,34.78060634147741,3.787190495457474,0.0,0.0,0.0,0.0,0.0,0.0,0.0,0.0,0.0,0.0,0.0,0.0,20.23077551833482,59.78407479260019,93.38589305742552,111.1249369293744,109.45880200226178,109.4196998087806,88.72446652885228,72.07615132221984,72.4271173515143,69.00074790972461,33.52456758989909,3.613297000870448,0.0,0.0,0.0,0.0,0.0,0.0,0.0,0.0,0.0,0.0,0.0,0.0,19.979631348821567,58.1029983769216,90.4103115047115,113.76131490123949,111.76519560962716,72.49832785021172,111.5305824487401,104.20829933937456,75.63540464104312,70.02503463652423,34.316784387907994,4.308870979218551,0.0,0.0,0.0,0.0,0.0,0.0,0.0,0.0,0.0,0.0,0.0,0.0,19.689702889839175,57.078711650121974,89.83045458674674,113.0371295618076,60.73079294046155,103.39510087657088,105.28885507630562,79.20324136819156,50.58647591619831,39.36001363494378,19.419166575591355,1.8355777655310548,0.0,0.0,0.0,0.0,0.0,0.0,0.0,0.0,0.0,0.0,0.0,0.0,2.183364754705106,4.830551462979628,5.294373416549044,17.93137579923435,39.8623019739703,54.66359487063817,70.31496309550663,55.47520381338165,54.895346895416864,26.027437273910376,13.062040046785585,0.8310010874780354,0.0,0.0,0.0,0.0,0.0,0.0,0.0,0.0,0.0,0.0,0.0,0.0,0.8500753282005611,3.6520812903395834,13.68036335020746,21.23535219638784,21.98910260893965,23.496285530031216,16.15365656389496,18.240378498939265,15.709226755060108,8.579275572980007,3.9610839900445,0.0,0.0,0.0,0.0,0.0,0.0,0.0,0.0,0.0,0.0,0.0,0.0,0.0,0.3671791339086193,0.3477869891740516,6.12537450402708,10.318210518850268,18.29855493314297,13.139290721711816,15.68983461032554,9.429350901180571,19.245273081004324,15.940978779838794,7.70980810004488,0.1932856393215935,0.0,0.0,0.0,0.0,0.0,0.0,0.0,0.0,0.0,0.0,0.0,0.0,20.92634949668292,57.098103794856534,87.91762614628945,109.52015747658592,68.76899588494591,59.53293062308694,79.78278038214428,62.68240567038797,99.20194695773564,32.67449226169854,33.71785322922069,4.521548763274712,0.0,0.0,0.0,0.0,0.0,0.0,0.0,0.0,0.0,0.0,0.0,0.0,5.816053900310123,28.558906921801572,57.4074243985735,65.81280647696647,57.44589078403059,62.66301352565341,73.65772378212925,63.22347829888363,84.787543243723,48.5382203666111,24.887433486727424,3.45879565101799,0.0,0.0,0.0,0.0,0.0,0.0,0.0,0.0,0.0,0.0,0.0,0.0,23.186964926314257,60.53750730113996,82.79714622432743,97.05736649249968,113.42338293643874,117.9156845306056,113.96445556493438,103.70410357627576,82.13209103113537,49.852117648381075,25.38972182575393,3.7099398205312446,0.0,0.0,0.0,0.0,0.0,0.0,0.0,0.0,0.0,0.0,0.0,0.0,22.43353241777449,51.99701601762909,65.65798722310197,73.87008366217337,77.48338066304382,86.1786912004192,104.12914124037609,88.45869877478509,51.08876425522483,28.210802028615483,14.008758194646944,1.4877907763570029,0.0,0.0,0.0,0.0,0.0,0.0,0.0,0.0,0.0,0.0,0.0,0.0,11.071960931402074,26.93568903631464,42.625523646640175,114.44766966323836,120.9373621650657,123.77497337655342,123.86875506010584,98.55342277316976,87.51229853093578,67.6095999530284,16.173048708629523,4.7533007880534,0.0,0.0,0.0,0.0,0.0,0.0,0.0,0.0,0.0,0.0,0.0,0.0,23.283607745975058,58.14178266639073,53.89077021736385,75.18398094394334,96.47750957453488,111.33729680941852,110.65761803167253,109.55830595803096,73.4021289564474,66.21845199633219,19.284057370473462,2.763221672669887,0.0,0.0,0.0,0.0,0.0,0.0,0.0,0.0,0.0,0.0,0.0,0.0,3.9610839900445,20.114740553939455,35.12839333065146,38.277868377952494,56.383137671773866,81.34813973743957,89.1542727531332,86.5458703343278,98.11980170074436,46.161569972584395,15.013652776712004,1.971004874660987,0.0,0.0,0.0,0.0,0.0,0.0,0.0,0.0,0.0,0.0,0.0,0.0,26.066221563379507,65.29080808919336,98.35187162953508,121.34555091652771,121.87581480861397,123.44498901205375,111.79444277873505,84.7083851447245,84.79517294001201,73.87008366217337,36.770685456860924,5.487659055870639,0.0,0.0,0.0,0.0,0.0,0.0,0.0,0.0,0.0,0.0,0.0,0.2705363142478225,26.62636843259768,63.49401461313144,95.39568222155565,114.48645395270752,121.41485399115292,123.15601426510749,118.05492648788,81.34273536923484,80.96442959490476,69.94778396159799,35.63068166967797,5.680944695192232,0.0,0.0,0.0,0.0,0.0,0.0,0.0,0.0,0.0,0.0,0.0,0.9855024373304936,27.882407184175992,65.4262351983233,96.74804588878273,106.1026893471334,103.50223452862905,104.09035695090694,75.56324043030956,66.8679298929342,67.51009599725923,69.33581873841698,37.215115265695765,6.0478059250888085,0.0,0.0,0.0,0.0,0.0,0.0,0.0,0.0,0.0,0.0,0.0,0.7149661230826709,24.05675030326143,46.432106286832216,70.08289316671589,78.7972779448138,98.0234767850956,84.18861208503569,108.12996323192584,59.97736043192179,62.701797815122546,68.47906742596352,33.56335187936823,5.46826691113607,0.0,0.0,0.0,0.0,0.0,0.0,0.0,0.0,0.0,0.0,0.0,0.0,22.259638923187467,34.35556867737713,31.959526138615857,35.32167896997306,56.093527116803514,73.1551175390907,43.591633939236104,40.86719655603535,41.987808198483734,26.066221563379507,7.902775835354431,3.226725722227261,0.0,0.0,0.0,0.0,0.0,0.0,0.0,0.0,0.0,0.0,0.0,0.0,8.92706256215406,26.68454486680138,25.293079006093137,97.15750625629292,106.0235312481349,108.53592665530358,105.96249367782282,75.54257666952682,70.567060977056,62.83849654030064,37.00275538565165,6.067198069823377,0.0,0.0,0.0,0.0,0.0,0.0,0.0,0.0,0.0,0.0,0.0,2.183364754705106,30.78073806196377,70.9332863989285,105.9796604944731,114.1949359736649,114.46229324779232,116.79252965606086,82.95800565442073,78.05846902082797,76.86187831950151,55.822990802555694,30.529593892450517,6.531020023392792,0.0,0.0,0.0,0.0,0.0,0.0,0.0,0.0,0.0,0.0,0.0,2.2800075743659027,30.87738088162457,69.71571403280727,102.42899058397497,116.6621890111236,115.70720535894914,117.4369210884702,95.2443599118236,78.829068346018,78.7241600220441,72.69161348953332,37.75618789419141,6.7049135179798185,0.0,0.0,0.0,0.0,0.0,0.0,0.0,0.0,0.0,0.0,0.0,2.685970997743658,31.7468483545597,70.06350102198132,100.59309491443184,118.62619999751966,117.60731763892475,119.44702815661236,101.25274573941918,82.10856613424426,82.63183613806555,73.09725900889904,37.81436432839512,6.531020023392792,0.0,0.0,0.0,0.0,0.0,0.0,0.0,0.0,0.0,0.0,0.0,2.878938733053209,31.16730934060697,69.02014005445918,100.36134288965316,121.0098442798113,116.95942926238298,122.64577832577992,110.95867313107637,84.33230469847871,84.44992918293428,72.4210771752855,37.56322015888186,6.608270698319021,0.0,0.0,0.0,0.0,0.0,0.0,0.0,0.0,0.0,0.0,0.0,3.052832227640235,30.181806903276467,66.54684684077168,68.18945687099318,61.19461489403097,68.84624655987214,30.954631556550797,96.57415239419568,120.49547558832718,99.39523259705724,70.52732297555075,35.41832178963385,6.724305662714388,0.0,0.0,0.0,0.0,0.0,0.0,0.0,0.0,0.0,0.0,0.0,2.9565073119914804,29.292947285606775,42.23927027200903,75.47390940292573,116.70828509286972,100.36134288965316,123.40429729851236,123.54957943201558,117.3008581713162,86.71181622861378,72.98122404450368,37.23450741043034,6.820948482375183,0.0,0.0,0.0,0.0,0.0,0.0,0.0,0.0,0.0,0.0,0.0,3.4394035062834223,29.81462776936785,64.13173006128788,76.38216116533,92.90299686313357,40.789945881109126,87.80159118189408,103.7374834975402,93.03810606825148,54.1419143868771,35.12839333065146,16.42419287814278,6.279875853879538,0.0,0.0,0.0,0.0,0.0,0.0,0.0,0.0,0.0,0.0,0.0,2.878938733053209,5.062621391770358,20.346810482730188,26.471867082745224,32.73235079189019,62.276760151022266,92.30374780043422,54.779311931021496,51.55258620879424,31.128525051137828,26.027437273910376,15.68983461032554,6.820948482375183,0.0,0.0,0.0,0.0,0.0,0.0,0.0,0.0,0.0,0.0,0.0,1.8549699102656223,10.646605363289751,68.36335036558022,72.71068773025586,86.52647818959323,91.82085160614228,86.60372886451947,97.4630120118654,87.04815867335432,81.48324894255747,56.42192196124301,36.3650399374952,7.400487496327922,0.0,0.0,0.0,0.0,0.0,0.0,0.0,0.0,0.0,0.0,0.0,0.1932856393215935,1.797111380073961,7.303844676667125,11.264928666711626,11.670892090089382,18.626949777582453,22.993997191004706,53.61991599910399,47.24371522957569,35.804575164264996,23.167890685591733,6.6276628430535895,