clear 
 New Circuit.PVSystem  basekv=12.47  Isc3=1000 Isc1=900 

 // P-T curve is per unit of rated Pmpp vs temperature 
// This one is for a Pmpp stated at 25 deg 
New XYCurve.MyPvsT npts=4  xarray=[0  25  75  100]  yarray=[1.2 1.0 0.8  0.6]  

 // efficiency curve is per unit eff vs per unit power 
New XYCurve.MyEff npts=4  xarray=[.1  .2  .4  1.0]  yarray=[.86  .9  .93  .97]   

// per unit irradiance curve (per unit if "irradiance" property) 
New Loadshape.MyIrrad npts=8760 interval=1 mult=[0.294571,0.312582,0.272509,0.264286,0.266812,0.288903,0.434158,0.463445,0.64039,0.550048,0.388661,0.364256,0.363002,0.363576,0.362572,0.360532,0.378022,0.457165,0.627711,0.658959,0.695399,0.675555,0.519233,0.333268,0.271516,0.259628,0.246201,0.247441,0.257167,0.309236,0.482631,0.50695,0.447644,0.452331,0.365599,0.37825,0.384168,0.369093,0.356483,0.359971,0.376269,0.460557,0.564343,0.598953,0.656335,0.615306,0.448723,0.307631,0.274825,0.267558,0.26018,0.268195,0.285961,0.348769,0.519537,0.523319,0.459017,0.454593,0.360461,0.376861,0.394184,0.401214,0.406427,0.408427,0.414812,0.474186,0.563316,0.594486,0.651723,0.610201,0.449076,0.308286,0.270232,0.257642,0.243523,0.244499,0.254731,0.304334,0.475884,0.509007,0.44829,0.437922,0.335709,0.343582,0.359752,0.379072,0.384057,0.383033,0.400921,0.491978,0.603096,0.647927,0.716705,0.675177,0.500252,0.349281,0.317038,0.302681,0.284123,0.281511,0.287928,0.344507,0.558874,0.621136,0.578402,0.617585,0.534908,0.507985,0.513904,0.525834,0.531738,0.521361,0.542889,0.616057,0.702461,0.74011,0.801504,0.763012,0.59248,0.430251,0.376446,0.357467,0.334503,0.325588,0.331831,0.388823,0.600783,0.662558,0.640831,0.645199,0.557341,0.567988,0.578202,0.586485,0.582075,0.563651,0.550663,0.624001,0.726942,0.766225,0.831827,0.751443,0.539415,0.368254,0.336213,0.330408,0.283617,0.278601,0.282763,0.30243,0.445983,0.473568,0.662484,0.590833,0.462802,0.455896,0.465863,0.462053,0.46598,0.480178,0.484147,0.531576,0.691725,0.717086,0.754752,0.743232,0.593704,0.405349,0.343281,0.334986,0.288144,0.285768,0.293374,0.313575,0.453822,0.485678,0.72136,0.704376,0.577036,0.554908,0.558843,0.579215,0.598382,0.585515,0.573428,0.605236,0.736887,0.740887,0.761487,0.735552,0.577374,0.38478,0.306886,0.276535,0.249607,0.244494,0.251339,0.300891,0.483738,0.528813,0.482565,0.511847,0.450379,0.4948,0.531246,0.552262,0.566992,0.532077,0.526876,0.593434,0.676887,0.703966,0.761248,0.725144,0.55721,0.399322,0.3531,0.335265,0.310997,0.307546,0.314739,0.367571,0.575773,0.637257,0.594338,0.60529,0.518621,0.52914,0.515679,0.515904,0.515713,0.499871,0.506776,0.596936,0.690849,0.726532,0.786964,0.743545,0.567635,0.403232,0.350163,0.321215,0.292417,0.283406,0.283978,0.334033,0.539051,0.589718,0.51552,0.503698,0.395296,0.420372,0.482602,0.54125,0.567535,0.557019,0.547885,0.608235,0.703019,0.71829,0.754013,0.708797,0.536604,0.372781,0.320982,0.29765,0.271217,0.263167,0.265805,0.314403,0.5106,0.536433,0.444202,0.428359,0.325768,0.325284,0.322131,0.324069,0.325127,0.324831,0.342692,0.434234,0.543023,0.577673,0.633797,0.595232,0.442563,0.312881,0.282814,0.280643,0.277508,0.292517,0.319349,0.381758,0.532065,0.536851,0.465411,0.43918,0.341266,0.345343,0.340597,0.345856,0.349375,0.347722,0.363551,0.439427,0.577864,0.622285,0.690314,0.655772,0.489997,0.340723,0.314113,0.314859,0.273243,0.265967,0.268403,0.290295,0.440588,0.481703,0.694844,0.665435,0.539697,0.542417,0.557525,0.55585,0.559526,0.547447,0.529453,0.557986,0.737035,0.760338,0.792055,0.775466,0.629948,0.449093,0.388746,0.378839,0.331086,0.322373,0.318671,0.334765,0.47797,0.513679,0.756872,0.737345,0.606363,0.588582,0.598461,0.611177,0.615169,0.610469,0.605893,0.620322,0.770703,0.776602,0.805374,0.791912,0.642718,0.449463,0.381684,0.365335,0.308323,0.296694,0.296262,0.315018,0.457498,0.489428,0.716981,0.695883,0.581799,0.589066,0.613655,0.62395,0.608906,0.597878,0.593442,0.609737,0.778656,0.796092,0.821376,0.797768,0.629492,0.428689,0.349936,0.322734,0.297713,0.288167,0.287814,0.336022,0.533426,0.582806,0.538075,0.572367,0.498189,0.539068,0.559059,0.564135,0.543626,0.508828,0.512546,0.571931,0.688781,0.723556,0.779089,0.738665,0.570944,0.410846,0.361826,0.337815,0.301113,0.283699,0.282126,0.330684,0.533997,0.586246,0.548019,0.595158,0.505712,0.512131,0.517549,0.548142,0.527974,0.513679,0.523481,0.585222,0.693288,0.723212,0.776812,0.7356,0.569163,0.410911,0.357442,0.331384,0.310497,0.305719,0.30857,0.362498,0.575192,0.617417,0.551411,0.590432,0.505334,0.544431,0.566061,0.582917,0.556461,0.532455,0.534538,0.597978,0.714647,0.750829,0.809955,0.766603,0.59258,0.428413,0.37123,0.344043,0.317445,0.308255,0.310255,0.358398,0.562442,0.619332,0.585942,0.635977,0.556897,0.550782,0.559509,0.566969,0.548978,0.536157,0.549957,0.607484,0.720429,0.754525,0.810481,0.772507,0.602604,0.438306,0.39541,0.386308,0.337695,0.331196,0.335755,0.357356,0.504619,0.539221,0.767872,0.7213,0.555926,0.532344,0.53418,0.490231,0.473674,0.470581,0.460306,0.51655,0.714232,0.7509,0.793523,0.78672,0.639787,0.450348,0.393282,0.385909,0.335413,0.329794,0.335752,0.36233,0.514242,0.54918,0.773335,0.731076,0.58784,0.571766,0.580815,0.602866,0.60286,0.585962,0.576854,0.595047,0.769756,0.794052,0.826435,0.808407,0.657986,0.468122,0.393879,0.369956,0.345847,0.340037,0.340748,0.391902,0.605242,0.670676,0.642117,0.676455,0.58838,0.597334,0.59085,0.59563,0.593974,0.593923,0.594225,0.636202,0.732934,0.761502,0.817017,0.776826,0.605936,0.442987,0.388237,0.353239,0.318905,0.309663,0.314896,0.364919,0.564997,0.62702,0.617992,0.662595,0.570534,0.580035,0.585589,0.600143,0.583057,0.542852,0.537213,0.604937,0.723588,0.755788,0.813062,0.77319,0.602917,0.440668,0.386094,0.364803,0.345557,0.341198,0.346709,0.391711,0.590079,0.645085,0.626664,0.65979,0.558971,0.579679,0.596706,0.607165,0.599397,0.581967,0.578433,0.616395,0.715382,0.740506,0.791537,0.747394,0.578339,0.418616,0.368581,0.346462,0.319471,0.308348,0.307193,0.356975,0.561335,0.625569,0.614512,0.645825,0.547046,0.572503,0.587305,0.597098,0.570953,0.550247,0.563888,0.617016,0.724546,0.759868,0.815822,0.773298,0.602268,0.439348,0.387597,0.364612,0.336671,0.32791,0.335971,0.395125,0.607458,0.664959,0.601449,0.602277,0.500434,0.520163,0.551041,0.575246,0.568389,0.541222,0.529573,0.588232,0.706811,0.739652,0.791551,0.744543,0.571035,0.407027,0.364882,0.360543,0.316924,0.312235,0.317687,0.339388,0.493827,0.514046,0.69248,0.631285,0.505388,0.526987,0.542183,0.571621,0.57631,0.551525,0.53589,0.552057,0.707435,0.710695,0.735504,0.717675,0.565128,0.380725,0.319889,0.306667,0.255909,0.24891,0.25579,0.277693,0.412101,0.431432,0.62212,0.568471,0.440804,0.443766,0.462921,0.480482,0.488116,0.485194,0.482224,0.510008,0.67252,0.687164,0.715046,0.694002,0.543327,0.357365,0.286562,0.266041,0.246252,0.244468,0.251513,0.30105,0.484679,0.533152,0.485692,0.508014,0.428954,0.452712,0.468054,0.499276,0.50277,0.485479,0.484736,0.536274,0.638506,0.666752,0.720076,0.671862,0.49935,0.339912,0.287216,0.264129,0.244121,0.242368,0.251351,0.302419,0.476115,0.522013,0.480645,0.498226,0.416209,0.440127,0.457054,0.473059,0.485633,0.480408,0.473019,0.516871,0.62053,0.648644,0.704515,0.66266,0.495281,0.338865,0.292292,0.273035,0.251891,0.249075,0.25625,0.308551,0.502463,0.553474,0.509374,0.55925,0.492225,0.511573,0.517833,0.524323,0.522761,0.515819,0.518974,0.561734,0.663161,0.693632,0.749232,0.706368,0.533263,0.372081,0.320484,0.296742,0.273354,0.270733,0.275684,0.320956,0.516766,0.567962,0.526699,0.562456,0.484119,0.491707,0.498294,0.505035,0.49472,0.47945,0.485393,0.536903,0.685477,0.720233,0.762753,0.705594,0.539093,0.390698,0.341178,0.322251,0.306712,0.307378,0.31689,0.368741,0.579358,0.628235,0.554766,0.576142,0.485869,0.52203,0.557269,0.566921,0.565288,0.534572,0.527137,0.570142,0.701121,0.732619,0.777507,0.723661,0.548349,0.384401,0.344535,0.337513,0.28982,0.285153,0.288764,0.306266,0.448384,0.469724,0.655038,0.570697,0.391793,0.376269,0.425403,0.451338,0.447835,0.441194,0.445963,0.474416,0.683298,0.701906,0.731893,0.71187,0.560985,0.378714,0.321272,0.31382,0.268505,0.256151,0.259523,0.289373,0.434875,0.469511,0.672773,0.6193,0.478681,0.466162,0.463015,0.450615,0.445866,0.441046,0.448288,0.477765,0.68276,0.702561,0.734027,0.717905,0.569117,0.386737,0.320609,0.302038,0.281008,0.277565,0.283293,0.335658,0.539184,0.592128,0.535602,0.552418,0.463043,0.479228,0.486788,0.492174,0.48718,0.47148,0.47428,0.517341,0.663292,0.701297,0.763061,0.726012,0.561976,0.396067,0.341627,0.332477,0.30962,0.303517,0.317109,0.376025,0.586918,0.642467,0.599047,0.618268,0.525604,0.551687,0.576356,0.589683,0.576234,0.553215,0.558459,0.601765,0.735515,0.765462,0.822702,0.762105,0.577147,0.420554,0.371014,0.345395,0.318424,0.314233,0.319923,0.366701,0.565581,0.616455,0.561546,0.555574,0.455418,0.473164,0.482836,0.499831,0.509502,0.50376,0.512877,0.542883,0.655615,0.673817,0.726598,0.682239,0.5086,0.34552,0.29417,0.272136,0.24984,0.246306,0.253399,0.302675,0.48854,0.540692,0.488703,0.497022,0.39996,0.415617,0.432988,0.446819,0.45735,0.452538,0.463894,0.497916,0.622615,0.646385,0.698665,0.655302,0.487821,0.328886,0.27901,0.260439,0.242855,0.242556,0.252108,0.302507,0.475864,0.513443,0.461268,0.467257,0.375518,0.386259,0.40223,0.398429,0.402415,0.402233,0.405923,0.438292,0.57876,0.610525,0.667645,0.627956,0.466822,0.317627,0.285922,0.283725,0.243717,0.242473,0.250637,0.273988,0.405067,0.411352,0.582149,0.52108,0.378187,0.358899,0.368658,0.376827,0.380973,0.374861,0.385793,0.416414,0.623728,0.643104,0.674941,0.660441,0.51585,0.334799,0.282399,0.280692,0.243845,0.244744,0.254799,0.280052,0.411253,0.410473,0.579508,0.53686,0.418978,0.433216,0.453608,0.46771,0.480434,0.480169,0.48081,0.483157,0.671435,0.686132,0.715239,0.695883,0.546144,0.361696,0.291487,0.268454,0.247023,0.244841,0.251635,0.300535,0.482983,0.533061,0.489755,0.520257,0.446834,0.473105,0.486495,0.498269,0.500286,0.487297,0.495332,0.527869,0.65005,0.677305,0.734906,0.694374,0.524232,0.365306,0.318264,0.300302,0.279167,0.272489,0.27322,0.317089,0.516211,0.578393,0.550515,0.581093,0.483516,0.490774,0.498368,0.515022,0.516268,0.499458,0.50827,0.541748,0.669341,0.700745,0.7591,0.720315,0.552091,0.393711,0.341434,0.317479,0.296939,0.291336,0.291257,0.337598,0.540325,0.605458,0.573593,0.610397,0.522292,0.523507,0.499822,0.501888,0.520869,0.527829,0.540072,0.565916,0.689933,0.717587,0.771489,0.729526,0.558564,0.394599,0.340751,0.315265,0.291023,0.285008,0.287697,0.338313,0.54232,0.594973,0.558755,0.585216,0.498129,0.520974,0.525689,0.512253,0.511221,0.511363,0.522024,0.547735,0.68231,0.708388,0.762842,0.727611,0.565822,0.407101,0.358486,0.339385,0.317863,0.31349,0.319277,0.374488,0.563822,0.643742,0.589083,0.603017,0.51039,0.52261,0.516137,0.50996,0.501666,0.494311,0.521051,0.566181,0.693034,0.719297,0.77655,0.739715,0.573186,0.413705,0.376338,0.371449,0.329498,0.324911,0.328183,0.350491,0.477825,0.540488,0.769958,0.725946,0.587345,0.562775,0.563902,0.595775,0.592045,0.553607,0.549897,0.574506,0.772573,0.787027,0.819683,0.803351,0.653652,0.469901,0.411569,0.403493,0.356102,0.351538,0.356967,0.379513,0.505738,0.57097,0.795204,0.730004,0.597266,0.590873,0.585603,0.59042,0.614941,0.609393,0.58702,0.59526,0.796357,0.8129,0.844161,0.825416,0.673991,0.487411,0.4232,0.414417,0.36377,0.357792,0.360799,0.379985,0.5065,0.570756,0.798078,0.748689,0.606533,0.589197,0.592947,0.600646,0.601711,0.591533,0.57466,0.582226,0.787977,0.813255,0.84489,0.825906,0.675618,0.489075,0.416226,0.390894,0.362464,0.352892,0.350559,0.401994,0.597255,0.68179,0.615727,0.610622,0.555884,0.569325,0.571775,0.580354,0.578948,0.570494,0.579654,0.614182,0.746529,0.777114,0.833101,0.795461,0.626246,0.457993,0.406401,0.387386,0.361198,0.351899,0.354278,0.408683,0.598629,0.686573,0.649447,0.66093,0.562442,0.584004,0.5974,0.61089,0.603589,0.600001,0.597889,0.621705,0.746558,0.771625,0.827058,0.784139,0.611305,0.450328,0.40437,0.384894,0.362077,0.357314,0.362094,0.41741,0.606952,0.695422,0.66315,0.684322,0.591217,0.608537,0.614298,0.599195,0.565379,0.562089,0.562684,0.598931,0.741849,0.777555,0.83577,0.790367,0.606192,0.440907,0.388709,0.361582,0.343025,0.342677,0.349051,0.407329,0.597605,0.685836,0.651797,0.659329,0.564659,0.594168,0.60933,0.607424,0.604263,0.596319,0.600994,0.632079,0.729284,0.771548,0.830703,0.789081,0.6133,0.450245,0.411443,0.40744,0.358216,0.354363,0.363781,0.387989,0.521202,0.58296,0.797319,0.732013,0.585817,0.603108,0.628903,0.638111,0.560758,0.499108,0.51896,0.52792,0.701903,0.732246,0.751992,0.725619,0.569843,0.378685,0.313214,0.301343,0.253456,0.24844,0.253459,0.274355,0.38484,0.426578,0.618785,0.560815,0.425058,0.422258,0.446364,0.468065,0.481063,0.479043,0.486648,0.500272,0.659457,0.689102,0.718765,0.70095,0.554327,0.372263,0.300347,0.274563,0.251237,0.247712,0.253943,0.303913,0.472399,0.553522,0.517884,0.558132,0.471608,0.487974,0.50664,0.525672,0.52102,0.503231,0.49251,0.534211,0.666965,0.730271,0.793634,0.756955,0.588406,0.433187,0.383579,0.358899,0.335445,0.326749,0.325722,0.38089,0.574284,0.670121,0.644519,0.66142,0.563387,0.575756,0.583096,0.589968,0.584926,0.579998,0.582499,0.616464,0.719146,0.74909,0.789164,0.738471,0.561799,0.395692,0.338068,0.308522,0.280239,0.268995,0.267882,0.313456,0.485496,0.56671,0.521162,0.543302,0.452903,0.476567,0.494114,0.505769,0.515605,0.510814,0.521191,0.556171,0.655843,0.697257,0.749756,0.70264,0.527143,0.367292,0.317576,0.29013,0.263682,0.258254,0.261887,0.311592,0.489627,0.573741,0.551263,0.590321,0.486973,0.49523,0.501763,0.515693,0.520294,0.492108,0.499913,0.533978,0.649418,0.70272,0.761189,0.720324,0.552925,0.393993,0.343673,0.322265,0.299465,0.294802,0.302302,0.358079,0.543919,0.631165,0.59843,0.614273,0.512925,0.531994,0.541421,0.559261,0.565174,0.549707,0.545763,0.583839,0.705389,0.758096,0.816488,0.778147,0.607544,0.444739,0.406285,0.3999,0.348692,0.340569,0.344615,0.366672,0.495292,0.563626,0.792863,0.737089,0.606881,0.617787,0.610426,0.615106,0.611157,0.599227,0.590659,0.599776,0.773381,0.807482,0.838994,0.8224,0.670827,0.482801,0.419001,0.407192,0.359098,0.358034,0.366499,0.385904,0.510905,0.573821,0.78866,0.729119,0.589183,0.61454,0.611183,0.60527,0.601955,0.581876,0.588779,0.602746,0.775606,0.810558,0.843211,0.823994,0.669748,0.478274,0.400119,0.379044,0.3585,0.347588,0.352437,0.411438,0.58154,0.686049,0.635095,0.638891,0.525356,0.497546,0.482215,0.525655,0.525146,0.519466,0.533377,0.57192,0.688536,0.741635,0.8018,0.761692,0.589126,0.425041,0.370559,0.34752,0.322934,0.315658,0.318765,0.369369,0.53383,0.632853,0.572555,0.57328,0.472208,0.481626,0.494803,0.507305,0.524594,0.516026,0.519825,0.56251,0.683153,0.738964,0.799549,0.757581,0.584906,0.419996,0.368411,0.347071,0.321323,0.314893,0.319545,0.373433,0.539537,0.648439,0.601198,0.613376,0.508202,0.521304,0.521071,0.528606,0.543489,0.5376,0.533804,0.57116,0.685036,0.736312,0.795261,0.751836,0.580072,0.420059,0.371486,0.352534,0.332932,0.333618,0.342108,0.398585,0.566944,0.669888,0.629512,0.643665,0.533619,0.525203,0.536003,0.569866,0.582414,0.584126,0.587911,0.620826,0.728043,0.775731,0.834609,0.792092,0.616424,0.453321,0.404102,0.386382,0.362561,0.354773,0.359158,0.41527,0.586369,0.693939,0.62397,0.593838,0.460133,0.460855,0.420457,0.415723,0.473381,0.477162,0.482033,0.506503,0.616444,0.667645,0.724507,0.681696,0.513164,0.354599,0.315029,0.304937,0.255357,0.249612,0.253778,0.274099,0.367708,0.43531,0.627193,0.566858,0.431073,0.420725,0.446173,0.473184,0.487957,0.488077,0.493984,0.511929,0.686314,0.725189,0.760178,0.749053,0.600521,0.417145,0.362339,0.313149,0.305765,0.309922,0.328439,0.463513,0.521208,0.678313,0.624524,0.487786,0.492234,0.504284,0.520983,0.537725,0.541341,0.552959,0.580971,0.689628,0.74839,0.792052,0.776545,0.625808,0.439934,0.382546,0.352212,0.328624,0.321005,0.326604,0.382424,0.596703,0.692989,0.601602,0.621358,0.519455,0.545393,0.577508,0.598541,0.603093,0.603082,0.636347,0.681158,0.726182,0.804782,0.869897,0.824611,0.649401,0.484571,0.430103,0.403482,0.379115,0.373011,0.376981,0.428965,0.637087,0.734178,0.634028,0.635311,0.557264,0.570864,0.527029,0.510276,0.511516,0.532339,0.560177,0.600874,0.641013,0.707739,0.762517,0.712818,0.535008,0.364754,0.306576,0.279144,0.253325,0.246884,0.251743,0.301446,0.486907,0.566952,0.45653,0.451497,0.349996,0.36025,0.369796,0.378489,0.389884,0.398363,0.421877,0.472436,0.531126,0.616851,0.686467,0.643662,0.477452,0.318708,0.271997,0.257235,0.244098,0.246519,0.256637,0.309159,0.482113,0.547137,0.444554,0.433219,0.335422,0.346336,0.359251,0.37343,0.390507,0.392015,0.413979,0.463479,0.523982,0.613701,0.686692,0.645867,0.482258,0.329788,0.284411,0.266753,0.247069,0.244724,0.251607,0.300692,0.483223,0.566958,0.461052,0.464694,0.375214,0.406683,0.436465,0.449178,0.466438,0.466893,0.469315,0.512666,0.572976,0.657354,0.730308,0.691094,0.523032,0.365679,0.318768,0.324592,0.279713,0.27571,0.281181,0.303696,0.449611,0.518123,0.674099,0.624798,0.479128,0.459697,0.469517,0.483555,0.489903,0.495241,0.531272,0.574945,0.693057,0.772009,0.819913,0.8046,0.656372,0.470959,0.410908,0.403562,0.354932,0.349782,0.360264,0.38736,0.538086,0.610366,0.73568,0.627185,0.445198,0.40472,0.377831,0.363428,0.352898,0.359715,0.40905,0.454493,0.583808,0.661434,0.708354,0.689461,0.541444,0.359041,0.299369,0.265068,0.244639,0.242855,0.250759,0.300751,0.479637,0.534211,0.449841,0.445468,0.345369,0.356861,0.376762,0.387767,0.397143,0.399732,0.422791,0.476112,0.538137,0.627526,0.701337,0.659272,0.490168,0.331165,0.281067,0.2609,0.242872,0.242416,0.250998,0.30115,0.478138,0.5328,0.450934,0.452345,0.362828,0.388331,0.418838,0.442099,0.453588,0.460633,0.478622,0.532563,0.58747,0.668254,0.735854,0.68962,0.519062,0.360179,0.308889,0.282812,0.258217,0.251615,0.255067,0.304314,0.496095,0.563313,0.48011,0.488927,0.410834,0.44196,0.452638,0.475335,0.475247,0.484087,0.502972,0.555596,0.602126,0.687324,0.759766,0.718611,0.551601,0.39341,0.346115,0.324129,0.300071,0.297954,0.305361,0.357965,0.566386,0.639966,0.556806,0.558359,0.45945,0.480377,0.487519,0.50069,0.513061,0.513565,0.531889,0.575573,0.630776,0.72085,0.793139,0.753244,0.585137,0.425488,0.374047,0.350533,0.328695,0.323571,0.325244,0.377803,0.587734,0.660333,0.585452,0.591502,0.488173,0.516268,0.539523,0.547723,0.543484,0.525994,0.541247,0.594671,0.648098,0.736602,0.808865,0.765619,0.593789,0.431722,0.378358,0.379479,0.331344,0.32525,0.327207,0.346911,0.49375,0.544505,0.731873,0.679903,0.540297,0.536416,0.55124,0.56671,0.572515,0.58337,0.593667,0.610952,0.720552,0.763305,0.82866,0.813343,0.664151,0.476687,0.416741,0.409429,0.357271,0.348286,0.351037,0.368467,0.512495,0.564172,0.755464,0.698284,0.561532,0.5554,0.561045,0.583438,0.611282,0.611951,0.593599,0.601497,0.718204,0.766487,0.834191,0.819026,0.666066,0.470584,0.406561,0.367398,0.341758,0.335285,0.335433,0.383309,0.586795,0.65448,0.576114,0.603534,0.527521,0.563748,0.563131,0.585265,0.596435,0.600706,0.619932,0.660558,0.701539,0.762031,0.849286,0.808669,0.639394,0.468819,0.407847,0.379746,0.351706,0.343272,0.346931,0.394414,0.594853,0.662632,0.592142,0.60918,0.51834,0.539196,0.557844,0.56117,0.570691,0.571647,0.58026,0.628292,0.686018,0.744145,0.833056,0.79527,0.621807,0.450763,0.396466,0.372812,0.344937,0.336463,0.34043,0.393725,0.597366,0.672033,0.599358,0.606394,0.511061,0.522152,0.531673,0.542007,0.56292,0.56924,0.573787,0.61693,0.675385,0.739302,0.828495,0.787306,0.61709,0.450811,0.396451,0.373379,0.347088,0.338745,0.342009,0.396161,0.604889,0.680119,0.603705,0.610653,0.514274,0.537022,0.55616,0.560499,0.571994,0.561995,0.579267,0.620037,0.67244,0.73259,0.822426,0.783635,0.614742,0.449135,0.394792,0.370869,0.343924,0.337126,0.342114,0.392542,0.597337,0.672912,0.597867,0.605023,0.50411,0.515457,0.5258,0.53103,0.531775,0.533807,0.559739,0.601568,0.64789,0.711455,0.80347,0.762492,0.590773,0.429503,0.38002,0.38361,0.334563,0.32634,0.328158,0.348135,0.493568,0.544872,0.743846,0.706518,0.582342,0.590278,0.615681,0.641992,0.65098,0.653393,0.671637,0.692818,0.802278,0.84197,0.900274,0.873286,0.716212,0.525615,0.460727,0.446964,0.394528,0.388874,0.393745,0.415652,0.562906,0.612025,0.798866,0.749082,0.605449,0.602482,0.627933,0.643312,0.654215,0.650884,0.651737,0.675026,0.788091,0.8342,0.894145,0.870051,0.714724,0.525652,0.465496,0.430228,0.404979,0.39632,0.391683,0.440471,0.648158,0.70089,0.643338,0.652096,0.559267,0.585768,0.60251,0.616637,0.6326,0.635698,0.647848,0.693404,0.749198,0.811611,0.898729,0.856328,0.678193,0.509172,0.459387,0.438593,0.405918,0.394152,0.39743,0.45255,0.660421,0.710584,0.664718,0.670238,0.556316,0.58059,0.604123,0.611484,0.625498,0.610272,0.632568,0.692898,0.749403,0.808859,0.891573,0.849997,0.674355,0.506167,0.45484,0.433142,0.407944,0.40114,0.40186,0.457444,0.671734,0.724068,0.661374,0.658879,0.548218,0.565285,0.585162,0.592173,0.584323,0.561856,0.577056,0.637101,0.698187,0.761391,0.855261,0.815423,0.645005,0.474911,0.407744,0.368408,0.339476,0.320666,0.307481,0.349486,0.544312,0.583148,0.505558,0.494868,0.392954,0.402233,0.413862,0.42853,0.43521,0.445186,0.470959,0.522784,0.575386,0.63592,0.724731,0.681056,0.512629,0.355971,0.308183,0.28531,0.262357,0.256606,0.260376,0.308966,0.499859,0.547069,0.485061,0.48922,0.409662,0.437882,0.456784,0.462107,0.473958,0.473904,0.492749,0.546847,0.602092,0.6669,0.758551,0.720335,0.554561,0.396269,0.34474,0.343907,0.294551,0.290451,0.295004,0.316193,0.461646,0.484338,0.689062,0.654102,0.525524,0.525902,0.544121,0.561296,0.570275,0.567934,0.584255,0.612839,0.725215,0.767303,0.822218,0.798818,0.641995,0.446614,0.374474,0.357823,0.30443,0.295934,0.297531,0.315075,0.456334,0.48763,0.699035,0.656076,0.53313,0.553061,0.579332,0.59633,0.584289,0.588218,0.611021,0.641935,0.753057,0.790168,0.834786,0.786407,0.61256,0.414252,0.344996,0.304795,0.274438,0.261694,0.262081,0.309711,0.502352,0.54819,0.487627,0.49931,0.429366,0.480471,0.50174,0.530233,0.538413,0.53414,0.538729,0.577992,0.630488,0.699815,0.794041,0.752268,0.583415,0.419846,0.367668,0.345028,0.322052,0.317971,0.324154,0.378813,0.58455,0.638054,0.587512,0.597019,0.497791,0.516262,0.527086,0.533542,0.532811,0.525018,0.541042,0.598717,0.66595,0.745024,0.84133,0.79873,0.627091,0.464557,0.414966,0.39378,0.366572,0.358062,0.363093,0.418625,0.627045,0.680378,0.620752,0.619064,0.523342,0.538963,0.545376,0.554814,0.563984,0.568124,0.584954,0.635066,0.696255,0.768925,0.865965,0.825061,0.651205,0.48839,0.436195,0.408055,0.38157,0.377174,0.381727,0.435936,0.646875,0.701875,0.644496,0.6531,0.556205,0.574612,0.585984,0.599224,0.605384,0.603076,0.620626,0.667498,0.725753,0.788868,0.872612,0.826432,0.653149,0.48452,0.429531,0.408695,0.387025,0.378028,0.379615,0.434593,0.645736,0.703317,0.650286,0.658449,0.559759,0.576606,0.588548,0.594614,0.602123,0.606107,0.62348,0.671629,0.729796,0.791975,0.874319,0.830191,0.657749,0.489992,0.432655,0.434004,0.383454,0.374107,0.375564,0.396104,0.543438,0.571035,0.781652,0.735051,0.596649,0.588107,0.604963,0.621059,0.63858,0.638478,0.648997,0.676634,0.788575,0.830785,0.890139,0.869032,0.711424,0.516228,0.451565,0.434903,0.37512,0.363841,0.366627,0.383753,0.527413,0.557565,0.776599,0.737157,0.612947,0.605814,0.623523,0.551778,0.495011,0.504372,0.578473,0.617681,0.7323,0.791272,0.864505,0.85163,0.696696,0.499799,0.432086,0.384074,0.351543,0.342083,0.340802,0.388743,0.592551,0.642325,0.584377,0.593371,0.516083,0.55013,0.574782,0.603409,0.610844,0.558501,0.516422,0.552754,0.621506,0.717143,0.81406,0.772246,0.602433,0.440158,0.389597,0.367361,0.340743,0.331905,0.33407,0.383036,0.563757,0.635564,0.572244,0.57322,0.488452,0.515858,0.529385,0.538726,0.544673,0.545416,0.560283,0.612298,0.66727,0.728402,0.813824,0.770982,0.602288,0.438386,0.383451,0.358717,0.335112,0.32801,0.331208,0.385687,0.571604,0.646357,0.586212,0.583108,0.482409,0.500127,0.512145,0.519768,0.5224,0.524784,0.539742,0.587236,0.649558,0.715993,0.800901,0.754852,0.585114,0.4233,0.371882,0.343064,0.31028,0.300837,0.303904,0.354346,0.537159,0.618808,0.566662,0.575838,0.49383,0.520769,0.528734,0.52891,0.534017,0.53431,0.548907,0.602655,0.663303,0.72672,0.812427,0.767192,0.600362,0.44287,0.394679,0.373515,0.347984,0.340967,0.346962,0.399575,0.583256,0.662444,0.603304,0.599599,0.498658,0.516965,0.532538,0.527308,0.530805,0.535249,0.545797,0.590107,0.653501,0.709907,0.796371,0.766632,0.598868,0.434411,0.38103,0.38138,0.328823,0.324612,0.333,0.352278,0.476269,0.537659,0.745374,0.68894,0.54809,0.552051,0.565623,0.575195,0.581065,0.579298,0.594651,0.619943,0.747818,0.803436,0.867888,0.849385,0.69825,0.507937,0.44382,0.436479,0.387935,0.380879,0.384171,0.400571,0.524944,0.583261,0.793568,0.731125,0.597605,0.593027,0.601167,0.607646,0.612853,0.608966,0.608406,0.635556,0.74289,0.781473,0.849192,0.834538,0.68515,0.495278,0.433156,0.398361,0.369924,0.357778,0.35922,0.409938,0.594685,0.672565,0.617411,0.623947,0.53138,0.552831,0.576737,0.601375,0.613701,0.605745,0.612059,0.631143,0.677052,0.766225,0.86403,0.812177,0.630488,0.460605,0.391873,0.350491,0.315288,0.304206,0.305025,0.3537,0.535722,0.635362,0.600365,0.598134,0.497264,0.512973,0.522132,0.527516,0.533625,0.529126,0.538018,0.583552,0.647856,0.714983,0.797856,0.744427,0.57124,0.411717,0.360057,0.336071,0.310269,0.304274,0.308881,0.358475,0.541227,0.617067,0.557406,0.564881,0.465513,0.469354,0.478781,0.494262,0.50648,0.501265,0.515119,0.566309,0.633371,0.682123,0.78963,0.743875,0.575582,0.417584,0.369614,0.349853,0.320407,0.309085,0.311555,0.354978,0.527738,0.603173,0.561296,0.582877,0.478644,0.487308,0.504255,0.517395,0.521913,0.514831,0.527991,0.577514,0.637983,0.684194,0.797848,0.760287,0.594318,0.435603,0.382336,0.354062,0.328297,0.322598,0.325125,0.379231,0.562883,0.641551,0.59287,0.589957,0.488267,0.49941,0.50642,0.514737,0.522087,0.520752,0.531983,0.584311,0.652935,0.702097,0.818738,0.78227,0.613038,0.451178,0.398042,0.397757,0.348436,0.339192,0.335977,0.35283,0.476846,0.528179,0.729309,0.674514,0.531653,0.523396,0.534342,0.544064,0.546995,0.545046,0.558592,0.587327,0.708482,0.731899,0.810467,0.787183,0.634267,0.445593,0.383932,0.37636,0.328215,0.315368,0.308047,0.315359,0.426723,0.474931,0.688519,0.651259,0.512663,0.50613,0.518357,0.529058,0.532754,0.531636,0.55013,0.583216,0.70138,0.726626,0.808461,0.786509,0.632167,0.443746,0.381812,0.345915,0.321272,0.312762,0.313186,0.362711,0.545649,0.620569,0.568215,0.57559,0.47912,0.502761,0.523922,0.531206,0.544958,0.557278,0.561742,0.603241,0.664945,0.722284,0.828469,0.76141,0.581506,0.434698,0.382782,0.359311,0.336807,0.318284,0.316321,0.374107,0.551394,0.631843,0.538692,0.499614,0.379112,0.400628,0.472328,0.497113,0.500255,0.460414,0.458858,0.53295,0.625947,0.684106,0.803359,0.765098,0.595343,0.435367,0.387116,0.367278,0.34643,0.342202,0.345821,0.401635,0.593806,0.67479,0.629074,0.630269,0.530427,0.551769,0.55925,0.563478,0.575986,0.57421,0.586195,0.640379,0.702731,0.74013,0.841139,0.79663,0.628445,0.46757,0.415973,0.394431,0.371748,0.365921,0.368894,0.412914,0.596077,0.681596,0.642828,0.650167,0.548594,0.578311,0.605395,0.612634,0.614665,0.605609,0.598911,0.623844,0.678958,0.753438,0.866065,0.806628,0.619998,0.446461,0.386561,0.357889,0.33207,0.324231,0.326715,0.377718,0.564209,0.645992,0.591186,0.596709,0.50298,0.529431,0.546443,0.558803,0.567259,0.574848,0.599725,0.655741,0.712425,0.735822,0.827388,0.775119,0.599764,0.432294,0.376281,0.375177,0.320083,0.306968,0.305805,0.323221,0.445815,0.503444,0.706598,0.657143,0.520943,0.515548,0.531841,0.546628,0.560092,0.5609,0.579611,0.617821,0.745019,0.771309,0.86432,0.84607,0.673376,0.470712,0.404381,0.389071,0.332941,0.323619,0.324541,0.33802,0.438235,0.522972,0.729307,0.677106,0.534629,0.530114,0.539389,0.553001,0.566642,0.57765,0.595326,0.630357,0.758622,0.780306,0.858781,0.835304,0.67415,0.477575,0.409853,0.372459,0.3448,0.33308,0.332514,0.381072,0.546833,0.659613,0.623347,0.628474,0.521384,0.544636,0.563512,0.574626,0.589774,0.596028,0.61876,0.681724,0.748385,0.795739,0.899019,0.844093,0.661813,0.487491,0.429446,0.405716,0.381815,0.377874,0.381715,0.441871,0.616108,0.725807,0.689179,0.7081,0.606405,0.612898,0.627637,0.633678,0.629088,0.618546,0.604656,0.606024,0.649885,0.708911,0.830344,0.796619,0.616088,0.445533,0.396306,0.376898,0.358369,0.348047,0.341616,0.384401,0.543999,0.652067,0.598871,0.595192,0.509872,0.552057,0.566579,0.574148,0.58428,0.58706,0.608869,0.660074,0.719866,0.758844,0.84524,0.803023,0.635234,0.47035,0.424888,0.40204,0.375606,0.365266,0.366026,0.412601,0.569453,0.680239,0.645082,0.645219,0.532845,0.548694,0.568463,0.574455,0.573442,0.576464,0.593186,0.654002,0.719157,0.757418,0.850683,0.805132,0.638825,0.475557,0.427574,0.409978,0.381695,0.369663,0.368379,0.420617,0.586645,0.696742,0.65151,0.647407,0.540599,0.56549,0.568329,0.568585,0.581702,0.59087,0.604482,0.65652,0.724179,0.766048,0.864153,0.818806,0.643375,0.475947,0.423306,0.427041,0.37446,0.360068,0.355644,0.370675,0.475907,0.573909,0.804142,0.748678,0.599318,0.584448,0.593374,0.606542,0.615704,0.626883,0.643602,0.675703,0.794209,0.822742,0.907288,0.889012,0.73329,0.543558,0.480693,0.470763,0.420176,0.413299,0.416878,0.434069,0.53534,0.624983,0.833901,0.777154,0.624781,0.616421,0.631541,0.641207,0.639912,0.641574,0.652966,0.676927,0.807565,0.842761,0.922379,0.902684,0.749079,0.557873,0.493927,0.457646,0.430516,0.415598,0.416443,0.473252,0.646599,0.760978,0.699655,0.703081,0.597007,0.605603,0.615997,0.625893,0.633026,0.632523,0.656523,0.718654,0.78946,0.824543,0.925085,0.879788,0.702837,0.537793,0.483564,0.458391,0.435529,0.430456,0.435165,0.489508,0.660558,0.768828,0.709321,0.709532,0.600945,0.604419,0.611854,0.617639,0.627899,0.632995,0.645378,0.704379,0.773552,0.809075,0.910275,0.86963,0.696332,0.528571,0.474706,0.450624,0.424939,0.41916,0.423735,0.479387,0.652594,0.76198,0.709241,0.708786,0.602738,0.608033,0.607239,0.619275,0.624604,0.621443,0.641804,0.694739,0.752106,0.795446,0.905034,0.860525,0.68921,0.527066,0.479031,0.457808,0.431483,0.418816,0.415626,0.468267,0.641155,0.761194,0.711987,0.714537,0.599079,0.60041,0.607848,0.616449,0.630707,0.632722,0.644934,0.710158,0.774345,0.815119,0.920476,0.874282,0.698073,0.531801,0.476806,0.449986,0.425724,0.416778,0.418155,0.469002,0.638583,0.765