clear 
set defaultbasefrequency=60

! around 3.5 mw of load
new object=circuit.ieee13nodeckt basekv=115 pu=1.0001 phases=3 bus1=sourcebus angle=30 mvasc3=20000 mvasc1=21000 

!sub transformer definition 
new object=transformer.sub phases=3 windings=2 xhl=0.008 windings=2 buses=[sourcebus,650] conns=[delta,wye] kvs=[115,4.16] kvas=[5000,5000] %rs=[0.0005,0.0005]

! feeder 1-phase voltage regulators
! define low-impedance 2-wdg transformer

new object=transformer.reg1 phases=1 bank=reg1 xhl=0.01 kvas=[1666,1666] buses=[650.1,rg60.1] kvs=[2.4,2.4] %loadloss=0.01
new object=regcontrol.reg1 transformer=reg1 winding=2 vreg=122 band=2 ptratio=20 ctprim=700 r=3 x=9 

new object=transformer.reg2 phases=1 bank=reg1 xhl=0.01 kvas=[1666,1666] buses=[650.2,rg60.2] kvs=[2.4,2.4] %loadloss=0.01
new object=regcontrol.reg2 transformer=reg2 winding=2 vreg=122 band=2 ptratio=20 ctprim=700 r=3 x=9 

new object=transformer.reg3 phases=1 bank=reg1 xhl=0.01 kvas=[1666,1666] buses=[650.3,rg60.3] kvs=[2.4,2.4] %loadloss=0.01
new object=regcontrol.reg3 transformer=reg3 winding=2 vreg=122 band=2 ptratio=20 ctprim=700 r=3 x=9 

!transformer definition 
new object=transformer.xfm1 phases=3 windings=2 xhl=2 buses=[633,634] conns=[wye,wye] kvs=[4.16,0.480] kvas=[500,500] %rs=[0.55,0.55] xht=1 xlt=1

! these are local matrix line codes
new object=linecode.mtx601 nphases=3 basefreq=60 rmatrix=[0.3465|0.1560,0.3375|0.1580,0.1535,0.3414] xmatrix=[1.0179|0.5017,1.0478|0.4236,0.3849,1.0348] units=mi 
new object=linecode.mtx602 nphases=3 basefreq=60 rmatrix=[0.7526|0.1580,0.7475|0.1560,0.1535,0.7436] xmatrix=[1.1814|0.4236,1.1983|0.5017,0.3849,1.2112] units=mi 
new object=linecode.mtx603 nphases=2 basefreq=60 rmatrix=[1.3238|0.2066,1.3294] xmatrix=[1.3569|0.4591,1.3471] units=mi 
new object=linecode.mtx604 nphases=2 basefreq=60 rmatrix=[1.3238|0.2066,1.3294] xmatrix=[1.3569|0.4591,1.3471] units=mi 
new object=linecode.mtx605 nphases=1 basefreq=60 rmatrix=[1.3292] xmatrix=[1.3475] units=mi 
new object=linecode.mtx606 nphases=3 units=mi rmatrix=[0.791721|0.318476,0.781649|0.28345,0.318476,0.791721] xmatrix=[0.438352|0.0276838,0.396697|-0.0184204,0.0276838,0.438352] cmatrix=[383.948|0,383.948|0,0,383.948]
new object=linecode.mtx607 nphases=1 basefreq=60 rmatrix=[1.3425] xmatrix=[0.5124] cmatrix=[236] units=mi 

!loadshape definitions for microgrid m1 represent residential loads 
new object=loadshape.634a_loadcurve npts=8760 interval=1 useactual=no mult=[0.180749,0.165314,0.162028,0.160885,0.180544,0.222345,0.270552,0.246008,0.217675,0.192632,0.165173,0.16607,0.164704,0.160621,0.159219,0.171578,0.240129,0.336047,0.38776,0.378728,0.374884,0.327085,0.270388,0.223752,0.19609,0.195972,0.19843,0.200612,0.22312,0.268576,0.318971,0.292986,0.274214,0.235361,0.202456,0.208916,0.204456,0.192053,0.186293,0.198747,0.26727,0.338589,0.390309,0.38492,0.385708,0.339907,0.283046,0.237759,0.211212,0.212448,0.21574,0.218875,0.242179,0.288582,0.343026,0.309977,0.278731,0.240461,0.211469,0.22392,0.233972,0.241434,0.248237,0.268208,0.320489,0.348298,0.389475,0.384612,0.384155,0.338707,0.280462,0.228641,0.197174,0.194161,0.190279,0.189921,0.211881,0.252041,0.297316,0.270967,0.25851,0.226771,0.194577,0.192641,0.187275,0.187169,0.186327,0.19951,0.268185,0.335662,0.38407,0.375159,0.371114,0.32089,0.257137,0.202948,0.168891,0.163479,0.160774,0.159421,0.178509,0.22023,0.269118,0.246888,0.260313,0.318058,0.373431,0.339158,0.351959,0.375766,0.387728,0.390669,0.47337,0.48941,0.483081,0.457689,0.447755,0.389833,0.311772,0.243592,0.189855,0.182609,0.178189,0.170261,0.19013,0.236032,0.292968,0.28931,0.388736,0.408999,0.465303,0.505258,0.527334,0.539298,0.527163,0.513588,0.517666,0.518498,0.553244,0.530354,0.527973,0.395047,0.265194,0.203845,0.169236,0.163497,0.161118,0.160226,0.179703,0.22171,0.270702,0.246547,0.216571,0.192891,0.1982,0.227187,0.248436,0.23551,0.240678,0.288301,0.342291,0.380526,0.418577,0.40546,0.398884,0.344898,0.270789,0.207999,0.170194,0.16358,0.16078,0.159432,0.178512,0.220526,0.269688,0.249695,0.275637,0.351562,0.393033,0.409222,0.420656,0.45223,0.493663,0.505166,0.533655,0.534162,0.508814,0.44744,0.408362,0.341989,0.265065,0.205478,0.170747,0.168617,0.169568,0.171938,0.193489,0.237157,0.286853,0.262303,0.251545,0.247505,0.274371,0.342524,0.400528,0.440765,0.481295,0.44969,0.471206,0.467236,0.465195,0.421221,0.40284,0.347586,0.276904,0.217862,0.179576,0.173392,0.1674,0.164845,0.184657,0.227521,0.279358,0.268125,0.299702,0.331196,0.398241,0.437289,0.409615,0.407444,0.410153,0.395924,0.441166,0.483652,0.500144,0.47052,0.458673,0.386748,0.294377,0.224216,0.178917,0.16715,0.16163,0.159421,0.178771,0.220994,0.270022,0.24758,0.243862,0.219306,0.195954,0.223292,0.306842,0.414323,0.481481,0.498486,0.517453,0.497169,0.515576,0.452495,0.395922,0.334788,0.264034,0.205578,0.169137,0.164309,0.16291,0.163032,0.183044,0.225511,0.275608,0.257153,0.258969,0.239314,0.218864,0.219583,0.205245,0.201413,0.198575,0.209238,0.277357,0.340423,0.402467,0.395744,0.395199,0.350005,0.289637,0.241033,0.215209,0.217115,0.220498,0.223737,0.247099,0.292443,0.342032,0.317676,0.296855,0.246163,0.205692,0.201051,0.191107,0.187723,0.185683,0.197414,0.265364,0.32563,0.38407,0.375159,0.371114,0.320936,0.257316,0.203108,0.168926,0.163479,0.160774,0.159433,0.178688,0.220661,0.269245,0.244871,0.214911,0.231131,0.276473,0.328944,0.365434,0.368621,0.384331,0.391786,0.397519,0.435445,0.468557,0.450673,0.432849,0.366558,0.294751,0.235669,0.186735,0.174539,0.170141,0.165833,0.181371,0.222567,0.272083,0.257083,0.306806,0.408094,0.447157,0.468988,0.485332,0.498824,0.516229,0.538319,0.580989,0.597002,0.56377,0.506793,0.477395,0.41595,0.334087,0.248608,0.19097,0.175474,0.166251,0.162754,0.180197,0.221876,0.271402,0.250819,0.265307,0.332607,0.402027,0.466712,0.507241,0.529738,0.518019,0.522561,0.562266,0.57915,0.58152,0.545387,0.509653,0.429696,0.312562,0.225665,0.17873,0.169299,0.165163,0.161956,0.179834,0.221636,0.271378,0.251008,0.271844,0.304967,0.35293,0.427698,0.461611,0.477058,0.455173,0.407673,0.447919,0.468505,0.492694,0.464885,0.444395,0.381078,0.304403,0.239165,0.194763,0.181889,0.166664,0.160418,0.178835,0.221208,0.270377,0.249197,0.266135,0.321641,0.367323,0.398127,0.407343,0.454556,0.428898,0.422654,0.476335,0.502655,0.505707,0.466639,0.435882,0.369001,0.296316,0.234176,0.186641,0.172975,0.169003,0.166257,0.183859,0.226708,0.280871,0.256258,0.257977,0.303149,0.36249,0.463165,0.512786,0.529653,0.493317,0.465585,0.501367,0.525939,0.542542,0.512939,0.496939,0.429066,0.341724,0.26576,0.203514,0.184559,0.17481,0.167712,0.18474,0.225375,0.275128,0.258724,0.305131,0.408837,0.483274,0.492713,0.509408,0.523672,0.484126,0.474408,0.533712,0.536773,0.556857,0.526953,0.506023,0.446421,0.366147,0.290968,0.232816,0.213238,0.203483,0.196743,0.214115,0.259268,0.317342,0.312863,0.357662,0.404177,0.381373,0.389335,0.39539,0.297359,0.249178,0.272824,0.283777,0.367059,0.447545,0.456828,0.462353,0.41696,0.344589,0.269349,0.223198,0.211652,0.197856,0.191791,0.211452,0.265219,0.333241,0.32509,0.360578,0.421165,0.439194,0.460431,0.474825,0.497572,0.511062,0.513667,0.542446,0.544005,0.570478,0.548752,0.526986,0.457951,0.374884,0.294993,0.237277,0.221341,0.211544,0.204453,0.21524,0.254242,0.316521,0.321913,0.409234,0.503941,0.545125,0.565913,0.561181,0.56344,0.559263,0.578517,0.624348,0.60601,0.587191,0.540984,0.516967,0.452551,0.369512,0.295239,0.2346,0.199002,0.178042,0.170615,0.189496,0.230426,0.277477,0.270458,0.370745,0.471953,0.505349,0.525525,0.526773,0.560627,0.540947,0.494672,0.514199,0.537936,0.569799,0.532705,0.512859,0.447942,0.365837,0.293183,0.234226,0.220346,0.219689,0.215436,0.233827,0.261545,0.300513,0.285861,0.385772,0.478334,0.494788,0.533464,0.555085,0.568854,0.565231,0.561533,0.600797,0.57529,0.563498,0.511803,0.4798,0.406111,0.322852,0.255551,0.20879,0.197048,0.186373,0.175889,0.188895,0.229004,0.280373,0.276296,0.374108,0.448316,0.468644,0.514599,0.535908,0.550494,0.518835,0.504274,0.568113,0.564108,0.56988,0.536955,0.514115,0.444961,0.361899,0.288933,0.235058,0.219228,0.203272,0.192254,0.214071,0.26501,0.325141,0.319076,0.334253,0.358012,0.382195,0.430399,0.493531,0.535892,0.528151,0.489092,0.497671,0.50897,0.541608,0.505815,0.475175,0.392694,0.302519,0.231111,0.182682,0.174946,0.17345,0.170427,0.188911,0.23295,0.2952,0.267685,0.224497,0.220672,0.257923,0.358266,0.398987,0.442364,0.464215,0.452706,0.469137,0.473039,0.469367,0.412824,0.388807,0.330641,0.260478,0.203992,0.170392,0.167399,0.166969,0.167844,0.186961,0.228407,0.278409,0.254386,0.221918,0.206118,0.205258,0.23461,0.259095,0.274924,0.288917,0.310341,0.350924,0.385682,0.40673,0.384907,0.375952,0.323608,0.259903,0.208343,0.177121,0.173911,0.173085,0.173044,0.193476,0.236526,0.286874,0.262465,0.252292,0.247053,0.259016,0.292646,0.304135,0.347822,0.365667,0.361286,0.400287,0.403789,0.417761,0.389535,0.377993,0.323318,0.25826,0.205969,0.175312,0.174068,0.175397,0.178677,0.202924,0.248174,0.296386,0.256469,0.253651,0.245139,0.251623,0.286277,0.304483,0.321622,0.343864,0.360775,0.390752,0.383552,0.405332,0.381507,0.374484,0.322636,0.259177,0.206424,0.173699,0.169738,0.168565,0.168027,0.187015,0.227813,0.276973,0.244317,0.251622,0.281951,0.339107,0.374965,0.383027,0.397028,0.398948,0.410435,0.456373,0.440528,0.442795,0.408818,0.391647,0.334015,0.263383,0.206209,0.169675,0.163896,0.161883,0.160758,0.180255,0.22361,0.273899,0.240948,0.253156,0.273687,0.315837,0.348172,0.360277,0.370616,0.349874,0.33835,0.38151,0.411971,0.477011,0.447942,0.405932,0.329525,0.263139,0.209635,0.17253,0.166515,0.164443,0.163873,0.185112,0.228607,0.280513,0.249921,0.253514,0.27364,0.316575,0.402512,0.466978,0.489297,0.494324,0.462974,0.481291,0.496498,0.52303,0.48427,0.440165,0.348925,0.270869,0.208705,0.171509,0.16487,0.161234,0.159421,0.178509,0.22023,0.269134,0.235199,0.215229,0.189343,0.163788,0.164872,0.179589,0.201732,0.199519,0.210897,0.269122,0.333078,0.406113,0.387272,0.377991,0.323099,0.257204,0.203581,0.170483,0.166006,0.163771,0.16361,0.183195,0.223637,0.272194,0.236407,0.216054,0.208241,0.210074,0.233899,0.236322,0.211481,0.203656,0.219,0.27916,0.344622,0.410752,0.391741,0.380669,0.327042,0.259506,0.203263,0.168891,0.163479,0.160774,0.159421,0.178533,0.220267,0.269123,0.238158,0.252755,0.268076,0.293102,0.327641,0.336209,0.342208,0.338302,0.331847,0.373446,0.388484,0.448053,0.425513,0.416684,0.361221,0.291905,0.221972,0.174786,0.174022,0.169563,0.164762,0.188384,0.234883,0.290753,0.266711,0.314899,0.370603,0.415096,0.476963,0.519866,0.544978,0.53151,0.514508,0.558891,0.567103,0.589191,0.544607,0.523113,0.422876,0.308242,0.247442,0.201793,0.185269,0.17436,0.171611,0.191122,0.22974,0.276954,0.251256,0.287226,0.280339,0.293584,0.333376,0.344837,0.372498,0.401881,0.420034,0.479127,0.469078,0.459704,0.40539,0.386706,0.32807,0.259856,0.205037,0.173223,0.169569,0.168829,0.168868,0.18863,0.23168,0.281708,0.247408,0.252413,0.242261,0.234969,0.254467,0.270285,0.28662,0.301681,0.315942,0.377184,0.380191,0.408736,0.382571,0.374833,0.323616,0.261141,0.209977,0.180493,0.178868,0.180188,0.183224,0.205074,0.248542,0.297673,0.262851,0.258462,0.227584,0.215284,0.225449,0.230646,0.224932,0.228804,0.24376,0.292999,0.313336,0.386492,0.378966,0.378326,0.330812,0.268183,0.215029,0.182593,0.178713,0.178468,0.179318,0.200211,0.242895,0.291046,0.255615,0.23298,0.200046,0.168326,0.167757,0.164572,0.15908,0.158955,0.170365,0.238359,0.305055,0.386241,0.379048,0.378088,0.330762,0.270109,0.221235,0.191999,0.188319,0.186875,0.188001,0.213102,0.259953,0.309236,0.270747,0.238201,0.198233,0.182318,0.217484,0.242025,0.255602,0.274958,0.299824,0.347751,0.361829,0.400711,0.378484,0.371624,0.321122,0.258697,0.207134,0.175991,0.173389,0.17366,0.174078,0.195249,0.240315,0.289757,0.251012,0.250191,0.25008,0.273593,0.313156,0.325634,0.340814,0.351518,0.351549,0.409021,0.406438,0.424082,0.391775,0.38028,0.326744,0.26001,0.203654,0.168894,0.163505,0.160963,0.160181,0.180502,0.224307,0.273599,0.239373,0.275983,0.308445,0.321912,0.342245,0.35409,0.385367,0.396951,0.388131,0.444047,0.440452,0.460865,0.422917,0.406597,0.348618,0.275537,0.215097,0.174172,0.166482,0.163359,0.161184,0.178841,0.220454,0.269617,0.242407,0.285357,0.359682,0.409081,0.424077,0.378589,0.377275,0.415938,0.453138,0.518442,0.495093,0.505094,0.46083,0.433219,0.366062,0.285894,0.217654,0.174172,0.166234,0.162278,0.15996,0.178567,0.220513,0.269812,0.23934,0.284624,0.318347,0.365596,0.424058,0.430841,0.400085,0.397191,0.42208,0.482023,0.458456,0.484277,0.448355,0.422468,0.368902,0.302982,0.237094,0.191795,0.183137,0.177556,0.173609,0.192212,0.237168,0.283843,0.276487,0.305933,0.351434,0.398601,0.434888,0.422633,0.405829,0.388822,0.391397,0.483729,0.501525,0.507759,0.471714,0.454607,0.396423,0.318997,0.24934,0.20242,0.192331,0.192155,0.188454,0.203448,0.247939,0.294662,0.307322,0.36833,0.419044,0.447208,0.45558,0.459032,0.501971,0.504884,0.458903,0.48999,0.540334,0.568349,0.536419,0.515712,0.447965,0.365398,0.298323,0.249313,0.235604,0.228692,0.224879,0.24348,0.291105,0.339677,0.360795,0.409531,0.416906,0.46229,0.50592,0.499502,0.499909,0.547406,0.570685,0.573353,0.583854,0.621035,0.586035,0.558488,0.487478,0.402894,0.330231,0.271081,0.256281,0.245081,0.238375,0.25371,0.293674,0.343405,0.36237,0.418775,0.463654,0.487331,0.501588,0.505772,0.518105,0.525955,0.536593,0.543453,0.551989,0.598044,0.585864,0.56273,0.492519,0.410099,0.337155,0.284396,0.266717,0.247957,0.232286,0.238328,0.276768,0.338618,0.343571,0.367822,0.363466,0.495105,0.52885,0.527908,0.543356,0.552086,0.556419,0.609983,0.598118,0.607493,0.571397,0.547834,0.487289,0.407519,0.325694,0.272213,0.26355,0.248303,0.233077,0.246389,0.291232,0.34135,0.354614,0.442311,0.485544,0.516073,0.561048,0.573473,0.601554,0.59802,0.614239,0.654944,0.623469,0.61677,0.569631,0.54423,0.47291,0.383407,0.311618,0.269008,0.260524,0.251979,0.24622,0.263383,0.309721,0.359573,0.378865,0.478687,0.5412,0.57379,0.607023,0.61486,0.59585,0.530172,0.539277,0.570928,0.559211,0.596485,0.574159,0.554298,0.478834,0.369368,0.288565,0.233742,0.208361,0.20795,0.211627,0.23292,0.285692,0.337319,0.354832,0.450787,0.484176,0.523422,0.582596,0.600296,0.591102,0.592448,0.605682,0.658038,0.647831,0.625032,0.566731,0.548371,0.481892,0.389485,0.31424,0.26307,0.255113,0.244685,0.24085,0.267529,0.317318,0.377927,0.386766,0.408332,0.421128,0.445737,0.53683,0.590889,0.608423,0.470397,0.34713,0.429253,0.44734,0.484485,0.453133,0.412339,0.33921,0.263014,0.203629,0.171096,0.168359,0.167636,0.167835,0.188654,0.233482,0.275266,0.246685,0.222646,0.203708,0.19308,0.213533,0.240659,0.266121,0.294364,0.317711,0.380136,0.413895,0.419171,0.388845,0.377827,0.324401,0.258651,0.203857,0.171875,0.168993,0.168648,0.168942,0.188889,0.231114,0.27009,0.243309,0.249607,0.270388,0.302157,0.342719,0.372568,0.409303,0.409247,0.399633,0.406589,0.413402,0.476813,0.470278,0.461746,0.403929,0.323645,0.262929,0.213344,0.194124,0.186139,0.177076,0.190252,0.234155,0.274169,0.319445,0.433975,0.487478,0.51778,0.543376,0.546239,0.557887,0.556206,0.576565,0.626237,0.612287,0.599921,0.523281,0.470351,0.384304,0.291527,0.220341,0.174915,0.165717,0.16116,0.160634,0.181688,0.225474,0.256243,0.242254,0.268516,0.284055,0.294493,0.33867,0.365899,0.388224,0.419137,0.440158,0.501986,0.498027,0.488115,0.436839,0.408608,0.33935,0.262897,0.205909,0.170081,0.165001,0.164332,0.164058,0.184365,0.22652,0.255334,0.241023,0.290516,0.345253,0.356019,0.377168,0.386403,0.413584,0.428728,0.392348,0.446368,0.440593,0.465929,0.439219,0.420648,0.358108,0.283959,0.221174,0.179337,0.170582,0.165583,0.163214,0.183015,0.227753,0.261919,0.276442,0.349319,0.391301,0.408903,0.459182,0.472913,0.501656,0.519324,0.513136,0.533927,0.529343,0.564087,0.533225,0.514316,0.453628,0.371991,0.298765,0.248384,0.235092,0.21989,0.207667,0.223655,0.269419,0.311375,0.344413,0.401671,0.43123,0.48601,0.558298,0.553093,0.56344,0.564134,0.564997,0.583954,0.593735,0.601541,0.572427,0.548594,0.478952,0.393862,0.319208,0.260103,0.23874,0.231635,0.234117,0.258829,0.299747,0.334371,0.349522,0.365631,0.398536,0.440874,0.557904,0.569705,0.554077,0.545413,0.517835,0.570447,0.59441,0.602569,0.576467,0.554622,0.483498,0.393118,0.312831,0.248948,0.236547,0.232306,0.21248,0.22841,0.282423,0.325506,0.340748,0.388021,0.413142,0.419966,0.375846,0.33374,0.425351,0.426136,0.439264,0.505834,0.502047,0.521463,0.505429,0.491791,0.428343,0.342155,0.263981,0.204727,0.190311,0.181366,0.173754,0.189689,0.230592,0.264202,0.26471,0.283305,0.284214,0.309384,0.3439,0.375787,0.399862,0.438073,0.445429,0.488512,0.496817,0.522335,0.508825,0.495699,0.429371,0.342431,0.262805,0.207435,0.194812,0.184,0.177688,0.195554,0.239853,0.277132,0.307068,0.359207,0.39554,0.40772,0.442561,0.440446,0.451209,0.486648,0.499212,0.521909,0.516691,0.528659,0.506684,0.490744,0.42171,0.333864,0.262216,0.213202,0.203728,0.200258,0.203014,0.227205,0.274638,0.31575,0.331443,0.403606,0.448833,0.452147,0.441728,0.462144,0.527375,0.559992,0.592854,0.639931,0.621501,0.606537,0.568962,0.548552,0.477619,0.385391,0.31208,0.262828,0.256206,0.246182,0.232954,0.248917,0.296076,0.339114,0.357248,0.368779,0.312511,0.271612,0.292413,0.227235,0.217203,0.329629,0.375222,0.432973,0.408582,0.416572,0.400754,0.386855,0.328355,0.25966,0.203075,0.169664,0.166,0.165378,0.165587,0.18609,0.228626,0.248239,0.241667,0.219205,0.199076,0.189749,0.20035,0.231677,0.268567,0.301018,0.329059,0.384264,0.42297,0.444218,0.433509,0.423234,0.367072,0.287906,0.221475,0.176831,0.171894,0.167302,0.185357,0.226656,0.273283,0.266526,0.234428,0.231243,0.247974,0.312668,0.339958,0.360982,0.398277,0.437439,0.509673,0.57666,0.554928,0.505962,0.479599,0.413068,0.324232,0.246662,0.19992,0.193712,0.186938,0.179032,0.197921,0.243409,0.303544,0.305863,0.336885,0.39079,0.411678,0.480585,0.558991,0.589783,0.602737,0.634394,0.749372,0.77105,0.720688,0.669818,0.627971,0.547861,0.455186,0.375823,0.313949,0.288741,0.27643,0.268065,0.283382,0.322823,0.373283,0.374786,0.376648,0.396365,0.501171,0.546036,0.440376,0.394355,0.405289,0.478482,0.586844,0.604013,0.559424,0.504126,0.459905,0.375419,0.277546,0.205808,0.169155,0.165741,0.165853,0.166969,0.187715,0.23029,0.280268,0.279711,0.252813,0.226384,0.200604,0.208075,0.210043,0.214432,0.221774,0.242891,0.321966,0.35637,0.359473,0.364011,0.372452,0.323106,0.261939,0.212304,0.184297,0.185798,0.190698,0.195314,0.217501,0.262917,0.314623,0.312188,0.275031,0.237963,0.203007,0.20326,0.204616,0.21194,0.225429,0.243724,0.315837,0.342773,0.348653,0.361068,0.37133,0.32126,0.258598,0.20566,0.173423,0.169485,0.168409,0.168442,0.188236,0.232428,0.283048,0.280082,0.250417,0.223761,0.205207,0.234958,0.265676,0.272596,0.297696,0.326444,0.373116,0.391167,0.396459,0.384889,0.380086,0.326421,0.259689,0.203597,0.168891,0.163479,0.160774,0.159425,0.178567,0.220248,0.269118,0.264859,0.219621,0.222856,0.20946,0.219384,0.243459,0.261394,0.273483,0.308166,0.425338,0.520188,0.512518,0.512094,0.49888,0.432257,0.353853,0.284538,0.232707,0.218908,0.210233,0.205129,0.235048,0.293706,0.357872,0.35951,0.258834,0.197849,0.167424,0.167687,0.162032,0.158917,0.159089,0.171147,0.238623,0.315498,0.339151,0.359833,0.371384,0.321856,0.259753,0.207298,0.175269,0.171852,0.172183,0.173237,0.194522,0.237903,0.289396,0.279779,0.258458,0.228959,0.198573,0.198078,0.203988,0.209549,0.212682,0.226917,0.30628,0.339195,0.345805,0.359737,0.37139,0.321004,0.258763,0.207064,0.176269,0.174636,0.175545,0.17748,0.197956,0.240438,0.291825,0.280802,0.258277,0.227008,0.201317,0.21994,0.244754,0.267213,0.284977,0.322628,0.399939,0.441407,0.43208,0.401012,0.383417,0.324004,0.25754,0.202933,0.168987,0.164942,0.163982,0.164485,0.186117,0.229021,0.278671,0.266383,0.247928,0.221025,0.218093,0.256656,0.271049,0.310176,0.313032,0.355351,0.439226,0.480372,0.450188,0.432475,0.418062,0.348307,0.272787,0.212047,0.173939,0.166489,0.162678,0.161375,0.18087,0.223002,0.276416,0.269782,0.274835,0.28771,0.304956,0.35973,0.366787,0.384471,0.414052,0.443446,0.522951,0.537845,0.519532,0.505607,0.488961,0.422638,0.342571,0.272259,0.217864,0.198612,0.191009,0.185307,0.199414,0.24122,0.299175,0.296109,0.329069,0.35683,0.372069,0.444004,0.487749,0.493355,0.48992,0.473589,0.536452,0.570438,0.547193,0.531093,0.515273,0.443726,0.356589,0.283103,0.2257,0.204495,0.195223,0.188685,0.202787,0.244383,0.29885,0.295376,0.297028,0.331015,0.363026,0.412718,0.445668,0.462799,0.477298,0.533338,0.605631,0.643934,0.617416,0.565567,0.54732,0.476717,0.39275,0.317135,0.265309,0.251421,0.235079,0.221138,0.233992,0.270481,0.319976,0.318297,0.329483,0.359431,0.402479,0.450639,0.463278,0.499326,0.560681,0.599639,0.601277,0.606813,0.595189,0.562499,0.549591,0.481159,0.390979,0.299134,0.237115,0.213135,0.199578,0.191979,0.204259,0.241525,0.289981,0.28075,0.308757,0.373315,0.452764,0.547487,0.539965,0.573803,0.599465,0.636655,0.723859,0.733056,0.671565,0.620478,0.596514,0.524306,0.441709,0.352102,0.279927,0.251743,0.23199,0.217346,0.232096,0.26328,0.305077,0.292253,0.329176,0.376223,0.428272,0.492435,0.531263,0.531051,0.550508,0.579179,0.633991,0.658849,0.643993,0.586399,0.563891,0.499941,0.412086,0.32208,0.262308,0.243962,0.225871,0.212587,0.228555,0.271589,0.32093,0.320185,0.367154,0.390581,0.426815,0.455799,0.468901,0.481422,0.53017,0.573604,0.619009,0.629239,0.616587,0.577288,0.556554,0.486225,0.4025,0.321192,0.261752,0.244591,0.228743,0.215076,0.229709,0.273683,0.331905,0.325171,0.36696,0.398578,0.4393,0.496665,0.531488,0.528737,0.555612,0.558781,0.637743,0.641993,0.615883,0.569004,0.54952,0.484059,0.40113,0.320597,0.261831,0.243965,0.226868,0.215741,0.233008,0.269654,0.320062,0.312298,0.358098,0.388939,0.419212,0.451996,0.465242,0.465296,0.46991,0.50162,0.598881,0.604418,0.561381,0.526867,0.517318,0.450473,0.362296,0.287631,0.237325,0.221583,0.208269,0.195255,0.207143,0.248302,0.30043,0.286947,0.31146,0.389805,0.463414,0.544101,0.589132,0.620292,0.64744,0.685438,0.775898,0.830484,0.803526,0.734307,0.690472,0.59339,0.491791,0.412999,0.352443,0.325303,0.308096,0.301958,0.318923,0.365614,0.423747,0.405533,0.407449,0.463938,0.502153,0.559578,0.612134,0.631911,0.660431,0.692119,0.745053,0.799677,0.776046,0.72108,0.682623,0.592517,0.493389,0.412742,0.359759,0.344714,0.332602,0.320746,0.321095,0.355796,0.412661,0.398744,0.441335,0.491228,0.540773,0.611079,0.632569,0.64391,0.680674,0.719563,0.783487,0.802774,0.776242,0.72537,0.694525,0.618299,0.517267,0.431068,0.379537,0.36755,0.33808,0.316198,0.330327,0.375464,0.429608,0.40261,0.455396,0.495876,0.502528,0.575011,0.625381,0.631655,0.66388,0.663997,0.754276,0.811825,0.788336,0.725067,0.680669,0.605617,0.510681,0.426242,0.372256,0.357699,0.345086,0.335152,0.344676,0.388389,0.453455,0.433757,0.452542,0.466269,0.479907,0.53413,0.582245,0.591822,0.577134,0.546531,0.613909,0.658666,0.652427,0.611976,0.601913,0.532909,0.449077,0.363041,0.279464,0.227403,0.204831,0.18183,0.184805,0.223343,0.271466,0.247065,0.243916,0.231259,0.226574,0.243506,0.250452,0.265778,0.27989,0.323943,0.418002,0.454097,0.43929,0.405332,0.395716,0.332692,0.260963,0.20384,0.168938,0.164207,0.162491,0.162383,0.182786,0.225543,0.275249,0.252362,0.24672,0.225692,0.234553,0.283299,0.310038,0.307323,0.337401,0.366395,0.443476,0.486751,0.469641,0.442518,0.433837,0.371997,0.29396,0.227497,0.181389,0.168318,0.162735,0.160939,0.179674,0.221793,0.273297,0.24088,0.254561,0.306968,0.35176,0.405865,0.445306,0.467793,0.491665,0.516316,0.59659,0.657455,0.635238,0.579251,0.538789,0.456143,0.360278,0.267219,0.193365,0.171902,0.164317,0.161003,0.179158,0.220604,0.26986,0.240693,0.257794,0.294032,0.35617,0.459176,0.522653,0.551062,0.52222,0.555368,0.650005,0.71816,0.696055,0.62938,0.570433,0.446029,0.314446,0.218786,0.171785,0.163582,0.161279,0.162356,0.183856,0.227124,0.276812,0.244571,0.247513,0.229971,0.257569,0.353986,0.395822,0.448218,0.47296,0.49076,0.534165,0.536605,0.512996,0.490891,0.488919,0.421379,0.341068,0.265144,0.21206,0.198311,0.190394,0.185357,0.20405,0.249841,0.306654,0.286479,0.324699,0.366947,0.399316,0.448939,0.464407,0.470469,0.468226,0.469154,0.534355,0.574009,0.580093,0.576007,0.574161,0.504354,0.420518,0.347542,0.297539,0.284076,0.266854,0.253163,0.270824,0.31804,0.376584,0.353859,0.382481,0.398642,0.448949,0.498167,0.503342,0.512415,0.533513,0.564828,0.633033,0.653978,0.642501,0.623882,0.62023,0.55055,0.460753,0.388781,0.334519,0.307374,0.290798,0.285544,0.302925,0.347622,0.407787,0.387516,0.431646,0.47624,0.523029,0.579506,0.597925,0.614482,0.633877,0.658201,0.737569,0.754042,0.729392,0.680197,0.643403,0.559832,0.469155,0.383829,0.322497,0.308558,0.30109,0.28556,0.295127,0.340275,0.39902,0.388629,0.456124,0.492478,0.534499,0.586898,0.605383,0.605435,0.625512,0.66186,0.741595,0.766492,0.744982,0.690586,0.648691,0.570604,0.482732,0.398694,0.330868,0.308701,0.292731,0.277933,0.289647,0.333259,0.391032,0.37183,0.396465,0.455228,0.503668,0.547213,0.582144,0.59684,0.639661,0.674692,0.746805,0.810733,0.777019,0.713863,0.674429,0.589296,0.487713,0.396548,0.335616,0.302242,0.270134,0.252068,0.265345,0.301504,0.3513,0.33075,0.372706,0.451005,0.538292,0.58864,0.626201,0.455035,0.307542,0.354394,0.558378,0.64803,0.637307,0.614404,0.619265,0.552762,0.456491,0.360388,0.29232,0.252062,0.223858,0.2092,0.217371,0.252773,0.302753,0.272246,0.306313,0.350999,0.436723,0.533438,0.588342,0.637564,0.660931,0.545601,0.471449,0.46258,0.481258,0.507696,0.516008,0.446463,0.364429,0.29147,0.240205,0.226205,0.21072,0.198204,0.21391,0.25317,0.294111,0.281165,0.314898,0.33118,0.392603,0.464832,0.48561,0.493708,0.511946,0.54165,0.612914,0.643558,0.616139,0.562385,0.546092,0.472567,0.38961,0.311044,0.249834,0.228351,0.217275,0.20566,0.217978,0.262722,0.311018,0.313083,0.350883,0.357702,0.387258,0.437212,0.453485,0.456285,0.466836,0.501647,0.574125,0.5967,0.59076,0.547712,0.528097,0.448948,0.361014,0.283702,0.228969,0.199547,0.17564,0.166123,0.183352,0.224885,0.26614,0.256988,0.286806,0.314168,0.390975,0.462446,0.475197,0.464613,0.47987,0.507663,0.58054,0.618643,0.609345,0.557948,0.542349,0.466492,0.385718,0.317514,0.269538,0.255613,0.241215,0.229851,0.248228,0.289258,0.332896,0.338217,0.379239,0.387288,0.418631,0.471263,0.49414,0.467458,0.474686,0.510613,0.567428,0.575816,0.573378,0.517433,0.499057,0.451715,0.372358,0.294489,0.238049,0.219853,0.202062,0.196996,0.221055,0.259951,0.301993,0.32043,0.346198,0.37908,0.39869,0.465876,0.496901,0.500651,0.518512,0.543183,0.621874,0.669197,0.681488,0.644558,0.627085,0.55022,0.463278,0.382246,0.321683,0.306347,0.297381,0.288274,0.303446,0.33919,0.383095,0.392649,0.423145,0.44092,0.490602,0.548939,0.570846,0.571903,0.583242,0.5966,0.628592,0.680701,0.648503,0.582373,0.581652,0.515883,0.431839,0.350774,0.292356,0.276769,0.257764,0.236494,0.246371,0.282796,0.319489,0.314978,0.366322,0.401339,0.469865,0.543118,0.593667,0.642891,0.675457,0.66859,0.706524,0.653368,0.603456,0.611535,0.618041,0.527967,0.423354,0.335435,0.251331,0.202603,0.17876,0.168071,0.18395,0.224311,0.264127,0.269738,0.348364,0.37269,0.397284,0.444505,0.459044,0.460665,0.478338,0.493288,0.548627,0.562936,0.562485,0.52504,0.509567,0.422984,0.332185,0.26045,0.207222,0.190592,0.179951,0.174107,0.191754,0.231244,0.276398,0.266291,0.288283,0.314022,0.348131,0.364267,0.376823,0.399871,0.431546,0.448614,0.515462,0.542526,0.546804,0.514537,0.503267,0.427292,0.342303,0.272576,0.224662,0.2127,0.190839,0.175306,0.189412,0.225665,0.261769,0.244274,0.287614,0.333993,0.357761,0.390988,0.423506,0.442709,0.459075,0.471599,0.538746,0.565183,0.555466,0.516548,0.514769,0.452292,0.373262,0.303311,0.246997,0.220178,0.20616,0.200052,0.213869,0.258235,0.300746,0.301938,0.363958,0.359191,0.392253,0.434501,0.437431,0.444179,0.46638,0.492222,0.555696,0.5843,0.589209,0.55296,0.553246,0.489513,0.404779,0.331039,0.274292,0.252591,0.241157,0.228013,0.229425,0.265347,0.312371,0.309574,0.313864,0.344445,0.369603,0.407244,0.434252,0.441301,0.450491,0.473176,0.545722,0.605726,0.608132,0.55469,0.53179,0.450738,0.357267,0.274637,0.218261,0.202935,0.193977,0.17907,0.184443,0.221219,0.249496,0.23559,0.242982,0.289174,0.328536,0.373676,0.40084,0.412852,0.427238,0.455518,0.538462,0.608187,0.597777,0.542626,0.52327,0.443356,0.347201,0.263507,0.205901,0.189837,0.181422,0.17253,0.185849,0.226514,0.257222,0.251547,0.300403,0.3341,0.373133,0.434301,0.474878,0.481049,0.510206,0.564067,0.596843,0.593752,0.586859,0.576924,0.564742,0.44858,0.341818,0.297325,0.241036,0.222988,0.217132,0.190871,0.194764,0.246351,0.268891,0.280561,0.263459,0.217281,0.190483,0.212156,0.33232,0.378018,0.388214,0.33085,0.34047,0.412445,0.478572,0.470869,0.486174,0.427613,0.348514,0.279932,0.231658,0.219684,0.213228,0.20721,0.221008,0.266934,0.311339,0.319811,0.394315,0.40348,0.462216,0.53286,0.54493,0.541375,0.572539,0.594145,0.654685,0.686486,0.671459,0.60533,0.57511,0.49873,0.417431,0.346755,0.291582,0.276634,0.266985,0.258317,0.270505,0.292749,0.315143,0.343935,0.438012,0.486853,0.525448,0.604936,0.655623,0.658964,0.661834,0.660803,0.670934,0.635256,0.602753,0.620293,0.620455,0.522889,0.410045,0.314461,0.242394,0.21025,0.195214,0.185272,0.199562,0.240453,0.274385,0.284305,0.328174,0.362884,0.414537,0.488301,0.527156,0.549491,0.578326,0.623615,0.710653,0.746623,0.7228,0.627541,0.571271,0.472488,0.370553,0.283936,0.220757,0.197431,0.178995,0.166677,0.182647,0.223878,0.255083,0.259972,0.277024,0.302914,0.344406,0.397909,0.437174,0.457982,0.49364,0.524127,0.605544,0.684557,0.698663,0.636512,0.639297,0.555709,0.41901,0.30997,0.241886,0.209391,0.186467,0.177209,0.190477,0.228057,0.258759,0.279568,0.305821,0.341045,0.375563,0.435462,0.460719,0.479267,0.5193,0.574806,0.651348,0.723413,0.737328,0.654367,0.623791,0.536779,0.428837,0.33139,0.260553,0.236913,0.216757,0.19569,0.204219,0.241047,0.275244,0.308395,0.40278,0.447548,0.469248,0.537266,0.568057,0.582276,0.621034,0.662221,0.741487,0.793004,0.781777,0.726491,0.702012,0.59646,0.486474,0.389889,0.321773,0.302266,0.286984,0.278245,0.289872,0.342151,0.390488,0.413853,0.513228,0.585512,0.632176,0.66026,0.695677,0.704082,0.693488,0.683092,0.672086,0.564892,0.516591,0.503831,0.534154,0.482741,0.384724,0.