clear
set defaultbasefrequency=60
new object=circuit.lehigh basekv=115 pu=1.0001 phases=3 bus1=sourcebus angle=30 mvasc3=20000 mvasc1=21000
edit object=vsource.source basekv=115 bus1=sourcebus.1.2.3 pu=1.00 r1=0 x1=0.0001 r0=0 x0=0.0001
new object=vsource.secondsource basekv=4.16 bus1=680.1.2.3 pu=1.00 r1=0 x1=0.0001 r0=0 x0=0.0001
new object=transformer.sub phases=3 windings=2 xhl=0.008 buses=[sourcebus.1.2.3,650.1.2.3] conns=[delta,wye] kvs=[115,4.16] kvas=[5000,5000] %rs=[0.0005,0.0005]
new object=transformer.reg1 phases=1 bank=reg1 xhl=0.01 kvas=[1666,1666] buses=[650.1,rg60.1] kvs=[2.4,2.4] %loadloss=0.01
new object=regcontrol.reg1 transformer=reg1 winding=2 vreg=121 band=2 ptratio=20 ctprim=700 r=3 x=9
new object=transformer.reg2 phases=1 bank=reg1 xhl=0.01 kvas=[1666,1666] buses=[650.2,rg60.2] kvs=[2.4,2.4] %loadloss=0.01
new object=regcontrol.reg2 transformer=reg2 winding=2 vreg=121 band=2 ptratio=20 ctprim=700 r=3 x=9
new object=transformer.reg3 phases=1 bank=reg1 xhl=0.01 kvas=[1666,1666] buses=[650.3,rg60.3] kvs=[2.4,2.4] %loadloss=0.01
new object=regcontrol.reg3 transformer=reg3 winding=2 vreg=121 band=2 ptratio=20 ctprim=700 r=3 x=9
new object=transformer.xfm1 phases=3 windings=2 xhl=2 buses=[633.1.2.3,634.1.2.3] conns=[wye,wye] kvs=[4.16,0.480] kvas=[500,500] %rs=[0.55,0.55] xht=1 xlt=1
new object=linecode.mtx601 nphases=3 basefreq=60 rmatrix=[0.3465|0.1560,0.3375|0.1580,0.1535,0.3414] xmatrix=[1.0179|0.5017,1.0478|0.4236,0.3849,1.0348] units=mi
new object=linecode.mtx602 nphases=3 basefreq=60 rmatrix=[0.7526|0.1580,0.7475|0.1560,0.1535,0.7436] xmatrix=[1.1814|0.4236,1.1983|0.5017,0.3849,1.2112] units=mi
new object=linecode.mtx603 nphases=2 basefreq=60 rmatrix=[1.3238|0.2066,1.3294] xmatrix=[1.3569|0.4591,1.3471] units=mi
new object=linecode.mtx604 nphases=2 basefreq=60 rmatrix=[1.3238|0.2066,1.3294] xmatrix=[1.3569|0.4591,1.3471] units=mi
new object=linecode.mtx605 nphases=1 basefreq=60 rmatrix=[1.3292] xmatrix=[1.3475] units=mi
new object=linecode.mtx606 nphases=3 units=mi rmatrix=[0.791721|0.318476,0.781649|0.28345,0.318476,0.791721] xmatrix=[0.438352|0.0276838,0.396697|-0.0184204,0.0276838,0.438352] cmatrix=[383.948|0,383.948|0,0,383.948]
new object=linecode.mtx607 nphases=1 basefreq=60 rmatrix=[1.3425] xmatrix=[0.5124] cmatrix=[236] units=mi
new object=loadshape.solar_634_shape npts=8760 interval=1 useactual=yes mult=[0.0,0.0,0.0,0.0,0.0,0.0,0.0,0.0,2.251409281371377,6.826004007644536,9.635571387693265,29.60903029483931,6.789964499373996,15.867074935379232,23.73761897684807,25.55655415897297,12.76919148916618,0.8464741648416733,0.0,0.0,0.0,0.0,0.0,0.0,0.0,0.0,0.0,0.0,0.0,0.0,0.0,0.0,5.9074508262617815,15.002732442907623,21.000130613340417,0.8286058372117419,45.07997349225328,16.11935149327301,58.533612785549046,40.25310220808635,21.252104318223523,1.818935182124898,0.0,0.0,0.0,0.0,0.0,0.0,0.0,0.0,0.0,0.0,0.0,0.0,0.0,0.0,17.325917887809407,40.39726024116851,53.67070199311157,22.746986778924235,40.45116807706897,40.34304955225736,32.95888744593547,28.61839809691548,15.020600770537555,1.1886980669064642,0.0,0.0,0.0,0.0,0.0,0.0,0.0,0.0,0.0,0.0,0.0,0.0,0.0,0.0,26.366988815544104,60.40675865658508,85.76524694657542,101.5962823736841,107.62972005238744,104.78411316406816,92.1769480356141,70.65439597885617,38.506246042502525,7.564359647674589,0.0,0.0,0.0,0.0,0.0,0.0,0.0,0.0,0.0,0.0,0.0,0.0,0.0,0.0,28.67230593281595,63.97285285730449,90.01548609841373,105.79261368962194,111.55590648280156,107.61154887174686,94.10400174255062,71.7352783739617,38.86633827219725,7.384162106321889,0.0,0.0,0.0,0.0,0.0,0.0,0.0,0.0,0.0,0.0,0.0,0.0,0.0,0.0,22.657039434753223,53.65283366548164,84.10803527215194,75.3731487382115,85.20678599488738,87.89036652249459,88.23259042455936,66.9444465980653,36.23666558049054,6.771793318733386,0.0,0.0,0.0,0.0,0.0,0.0,0.0,0.0,0.0,0.0,0.0,0.0,0.0,0.0,22.99926333681801,22.837236976105924,81.60465228589746,93.59975147977372,83.82032491200899,80.2539278582789,67.64676272982481,34.57975675907773,18.26233939682209,1.945224887577126,0.0,0.0,0.0,0.0,0.0,0.0,0.0,0.0,0.0,0.0,0.0,0.0,0.0,0.0,23.413566255423888,54.589558027505,14.408231982949056,18.982826709222213,42.48634030881711,49.22209411927996,40.32518122462743,26.13288343829093,13.867942211901632,1.6030009855123353,0.0,0.0,0.0,0.0,0.0,0.0,0.0,0.0,0.0,0.0,0.0,0.0,0.0,0.0,24.061671698272253,55.23766347035336,29.60903029483931,62.98222065938065,49.33021264409157,23.03530284508856,29.536951278298236,24.71007999413129,12.805230997436718,6.051608859343942,0.0,0.0,0.0,0.0,0.0,0.0,0.0,0.0,0.0,0.0,0.0,0.0,0.0,0.0,11.148322176023912,27.55568688245057,44.3955256881237,76.09363605061162,44.161420310870525,57.668967440066766,58.56965229381958,47.2590009040729,26.366988815544104,4.628805415184306,0.0,0.0,0.0,0.0,0.0,0.0,0.0,0.0,0.0,0.0,0.0,0.0,0.0,0.0,29.032701015521354,64.26086607045812,89.94370993488332,105.41435027928662,111.10556405592516,107.62972005238744,95.0585944322039,74.00455598296301,43.92731493361735,10.82426945459973,0.0,0.0,0.0,0.0,0.0,0.0,0.0,0.0,0.0,0.0,0.0,0.0,0.0,0.0,26.817331242420515,60.91100891936197,85.4769308804111,103.64932293306218,109.98894500555976,107.53946985520577,95.29269980945706,72.1492784395569,42.90064322742298,10.66224309388764,0.0,0.0,0.0,0.0,0.0,0.0,0.0,0.0,0.0,0.0,0.0,0.0,0.0,0.0,26.24100196310255,60.22656111523239,84.81065425692212,78.23692680717139,86.84582648867027,78.9755853002121,71.26676476644468,56.85853278349563,33.73328259423606,8.158557254622483,0.0,0.0,0.0,0.0,0.0,0.0,0.0,0.0,0.0,0.0,0.0,0.0,0.0,0.0,10.93238797941135,25.898778061037763,46.93494818264872,59.83042937726712,68.54744758357764,62.91014164283956,37.20942945078444,30.29347809896889,17.091812510556235,2.7916990524187995,0.0,0.0,0.0,0.0,0.0,0.0,0.0,0.0,0.0,0.0,0.0,0.0,0.0,0.0,5.763292793179622,15.47094319741397,71.86126522640325,89.58331485217792,103.4691253917095,102.64082240750842,91.69056610046714,71.59112034087954,41.72981348814645,10.554124569076018,0.0,0.0,0.0,0.0,0.0,0.0,0.0,0.0,0.0,0.0,0.0,0.0,0.0,0.0,23.863605829289625,55.4539005199766,78.21875562653078,66.1518802691241,77.75054487202442,101.2361901439894,61.18115380488568,27.95212147342651,15.65083788575599,2.8277385606893395,0.0,0.0,0.0,0.0,0.0,0.0,0.0,0.0,0.0,0.0,0.0,0.0,0.0,0.0,24.674040485860758,59.34404744212017,86.62958943904704,105.5763766399987,109.59281326759452,106.78324588754576,94.82448905495072,74.6169247705515,43.69320955636418,11.382427553277084,0.0,0.0,0.0,0.0,0.0,0.0,0.0,0.0,0.0,0.0,0.0,0.0,0.0,0.0,26.94331809486206,60.69477186973873,87.81828750595349,104.00941516275692,110.49319526833663,107.71997024956914,96.67946374534615,75.69750431264636,44.46760470466478,11.742822635982485,0.0,0.0,0.0,0.0,0.0,0.0,0.0,0.0,0.0,0.0,0.0,0.0,0.0,0.0,28.42033222793285,63.72057629941071,89.36738065556536,104.63995513098602,114.635618748374,111.70006451588372,99.27309692878234,75.93160968989953,46.71871113302548,12.805230997436718,0.0,0.0,0.0,0.0,0.0,0.0,0.0,0.0,0.0,0.0,0.0,0.0,0.0,0.0,27.89791078451536,62.22569383870999,87.00785284938236,101.88429558683777,107.44952251103476,104.22565221238014,92.91530367564415,73.26589748992228,44.3955256881237,11.940888504965114,0.0,0.0,0.0,0.0,0.0,0.0,0.0,0.0,0.0,0.0,0.0,0.0,0.0,0.0,7.186096237339258,17.99219451129838,27.249502488656315,15.560890541584978,45.11601300052382,12.030835849136126,12.553257292553615,0.1801975413526997,0.0,0.0,0.0,0.0,0.0,0.0,0.0,0.0,0.0,0.0,0.0,0.0,0.0,0.0,0.0,0.0,6.6279381386619045,19.469208644369164,55.0217292737408,58.76771816280221,110.94353769521304,108.5482732337702,51.29330585929863,44.50364421293532,25.88090973340783,5.74542446554969,0.0,0.0,0.0,0.0,0.0,0.0,0.0,0.0,0.0,0.0,0.0,0.0,0.0,0.0,7.492280631133509,19.433169136098623,22.584960418212145,56.21012448763658,118.59784468705868,116.59871196358104,104.06362585166804,82.14494205694488,49.56431802134474,14.048139753254333,0.0,0.0,0.0,0.0,0.0,0.0,0.0,0.0,0.0,0.0,0.0,0.0,0.0,0.0,29.71714881965093,65.43139295672398,91.18631583769026,106.62091667382302,113.05078894350228,110.31330057999465,98.80458332126533,78.32687415134238,49.06006775856787,14.372192474678515,0.0,0.0,0.0,0.0,0.0,0.0,0.0,0.0,0.0,0.0,0.0,0.0,0.0,0.0,28.312213703121227,62.53187823250424,86.98998452175243,101.95637460337883,108.0979308068938,105.14450824677358,94.41018613634486,75.33710922994096,47.09697454336081,13.88611339254224,0.0,0.0,0.0,0.0,0.0,0.0,0.0,0.0,0.0,0.0,0.0,0.0,0.0,0.0,18.78476084023958,43.06266958813507,49.63639703788583,73.68020040852815,82.48746881202035,79.04736146374252,71.96938375121488,52.93234635308151,32.41859767488804,9.257307977357936,0.0,0.0,0.0,0.0,0.0,0.0,0.0,0.0,0.0,0.0,0.0,0.0,0.0,0.0,22.332683860318365,52.17581953241085,50.55495021926858,93.90593587356798,99.0750310597997,71.87913355403319,9.977795289758056,69.88000083055559,41.27977391428072,11.616532930530257,0.0,0.0,0.0,0.0,0.0,0.0,0.0,0.0,0.0,0.0,0.0,0.0,0.0,0.0,6.321753744867652,10.17586115874069,15.34465349196174,23.71975064921814,18.73085300433911,13.003599719430028,13.183494407772052,5.11488449732058,2.629369838696032,0.0539078359004715,0.0,0.0,0.0,0.0,0.0,0.0,0.0,0.0,0.0,0.0,0.0,0.0,0.0,0.0,29.75318832792147,64.83719534977608,90.26776265630753,105.99067955860455,112.40238064764324,109.89899766138876,99.43512328949444,79.91170395621413,49.18635746402009,15.579061722225587,0.0,0.0,0.0,0.0,0.0,0.0,0.0,0.0,0.0,0.0,0.0,0.0,0.0,0.0,28.25830586722076,62.477970396603766,87.42215576798822,102.40671703025524,108.67426008621172,106.441021985481,95.85085790813444,61.52337770695047,40.93755001221592,15.47094319741397,0.0,0.0,0.0,0.0,0.0,0.0,0.0,0.0,0.0,0.0,0.0,0.0,0.0,0.0,8.825136731122134,27.06960780031429,46.08847401780705,46.6466321164844,60.010324065609154,56.6786380951536,51.167319006857085,36.8129948598085,22.584960418212145,6.483780105579744,0.0,0.0,0.0,0.0,0.0,0.0,0.0,0.0,0.0,0.0,0.0,0.0,0.0,0.0,29.735017147280864,65.35961679319357,92.62698760947984,108.51223372549966,115.21194802769196,113.2128153042144,101.68622971785514,81.96504736860285,51.041332154415535,17.037904674655763,0.0,0.0,0.0,0.0,0.0,0.0,0.0,0.0,0.0,0.0,0.0,0.0,0.0,0.0,29.843135672092487,63.63062895523969,88.26893278584059,103.43308588343896,109.61068159522443,107.91803611855175,97.72400377917047,79.10126929964298,51.02316097377492,17.361957396079948,0.0,0.0,0.0,0.0,0.0,0.0,0.0,0.0,0.0,0.0,0.0,0.0,0.0,0.0,29.62689862246924,25.700712192055125,60.28046895113286,74.90493798370515,85.4769308804111,83.7300747148273,72.13141011192697,20.657906711275626,14.930653426366543,9.85150558430583,0.0,0.0,0.0,0.0,0.0,0.0,0.0,0.0,0.0,0.0,0.0,0.0,0.0,0.0,0.0,22.891144812006395,61.7214435759331,86.55751042250596,112.78064405797858,112.69069671380754,103.25319119509692,83.96418009208047,52.98625418898199,18.64060280715742,0.0,0.0,0.0,0.0,0.0,0.0,0.0,0.0,0.0,0.0,0.0,0.0,0.0,0.0,21.396262351305683,57.05659865247825,85.35094402796955,114.00538163315557,96.33723984328137,108.29599667587642,106.31503513303944,82.57741615619138,31.91434741211116,15.52485103331444,0.0,0.0,0.0,0.0,0.0,0.0,0.0,0.0,0.0,0.0,0.0,0.0,0.0,0.0,15.74108808293768,20.8920120885288,15.74108808293768,23.71975064921814,15.70504857466714,65.57555098980615,59.72231085245551,43.35098565429939,15.056640278808098,2.071211740018678,0.0,0.0,0.0,0.0,0.0,0.0,0.0,0.0,0.0,0.0,0.0,0.0,0.0,0.0,1.170526886265856,7.564359647674589,11.832769980153492,42.34218227573496,50.96925313787445,23.73761897684807,34.3816908900951,14.984561262267018,9.095281616645844,17.127852018826776,0.0,0.0,0.0,0.0,0.0,0.0,0.0,0.0,0.0,0.0,0.0,0.0,0.0,0.0,7.456241122862968,7.096148893168246,27.51964737418003,53.904807370364736,49.4383311689032,61.84743042837466,67.59285489392435,81.51470494172645,52.69824097582834,18.91074769268113,0.0,0.0,0.0,0.0,0.0,0.0,0.0,0.0,0.0,0.0,0.0,0.0,0.0,0.0,5.979529842802861,15.182627131249648,28.402161047292235,105.77444250898132,39.69464125639831,39.47870705978575,44.80982860672957,33.715414266606125,0.8286058372117419,17.578194445703186,0.0,0.0,0.0,0.0,0.0,0.0,0.0,0.0,0.0,0.0,0.0,0.0,0.0,0.0,9.563492371152186,42.50451148945772,91.87046078880915,109.66489228413558,115.77040897938,115.21194802769196,104.69416581989717,85.22495717552799,55.16558445381227,20.80206474435779,0.0,0.0,0.0,0.0,0.0,0.0,0.0,0.0,0.0,0.0,0.0,0.0,0.0,3.0436727573019025,35.06613869422468,69.98842220837788,95.88689741640496,111.06952454765464,117.42762065380349,114.9778426504388,104.5318366061744,85.44089137214057,57.05659865247825,21.864473105812024,0.0,0.0,0.0,0.0,0.0,0.0,0.0,0.0,0.0,0.0,0.0,0.0,0.0,3.0978834462130505,33.80536161077714,67.44869686084219,91.78051344463816,106.62091667382302,112.9787099269612,111.26789326964791,104.63995513098602,82.91964005825616,55.05746592900066,21.19819648232305,0.0,0.0,0.0,0.0,0.0,0.0,0.0,0.0,0.0,0.0,0.0,0.0,0.0,3.908318102784184,35.53434944873102,70.00629053600782,97.45385889364675,109.25058936552972,115.23011920833258,96.80545059778773,91.79868462527875,70.36638276570254,55.562019044788215,11.994796340865587,0.0,0.0,0.0,0.0,0.0,0.0,0.0,0.0,0.0,0.0,0.0,0.0,0.0,0.0720790165410798,19.739353529892878,45.18778916405422,63.86473433249286,72.70773939124491,85.8191547824759,90.82592075498486,60.40675865658508,53.13041222206414,37.65946902465018,12.76919148916618,0.0,0.0,0.0,0.0,0.0,0.0,0.0,0.0,0.0,0.0,0.0,0.0,0.0,0.8646453454822818,31.80622888729954,63.77448413531117,89.36707780255468,104.9640078524102,111.44778795798996,109.73697130067666,100.06536040471283,80.88446782650801,51.76181946681566,20.009498415416584,0.0,0.0,0.0,0.0,0.0,0.0,0.0,0.0,0.0,0.0,0.0,0.0,0.0,0.0,4.73662108698525,6.717885482832916,21.30631500713467,29.807096163821942,31.78836055966961,38.48807486186192,24.512014125148664,21.27027549886413,22.638868254112616,8.41083381251626,0.0,0.0,0.0,0.0,0.0,0.0,0.0,0.0,0.0,0.0,0.0,0.0,0.0,0.0,0.5224214434174907,23.23336871407119,41.33368175018119,53.50867563239947,80.92050733477856,92.46496124876772,72.34734430853952,89.4933675080069,33.7693221025066,11.562625094629784,0.0,0.0,0.0,0.0,0.0,0.0,0.0,0.0,0.0,0.0,0.0,0.0,0.0,3.800199577972564,11.796730471882956,25.43056730653141,44.8276969343595,62.04549629735728,120.00277980358835,115.86035632355102,105.55850831236876,86.75557629148858,58.533612785549046,23.61163212440652,0.0,0.0,0.0,0.0,0.0,0.0,0.0,0.0,0.0,0.0,0.0,0.0,0.0,4.862910792437477,36.07463921977845,69.77188230574397,93.92380420119792,108.67426008621172,113.91513143597388,111.66402500761318,102.11870381710162,83.89210107553937,56.6786380951536,22.981092156177407,0.0,0.0,0.0,0.0,0.0,0.0,0.0,0.0,0.0,0.0,0.0,0.0,0.0,4.430436693190997,13.723784178819471,57.41699373518365,69.3939217484193,107.3235356585932,112.96084159933127,110.96170887585366,101.30826916053049,83.15374543550932,56.26433517654773,21.84660477818209,0.0,0.0,0.0,0.0,0.0,0.0,0.0,0.0,0.0,0.0,0.0,0.0,0.0,1.963093215207058,7.294214762150877,35.89474453143642,33.7693221025066,46.62876378885447,64.00858951256434,52.19399071305146,66.58435436837058,32.81472941285331,10.22976899464116,0.0178683276299315,0.0,0.0,0.0,0.0,0.0,0.0,0.0,0.0,0.0,0.0,0.0,0.0,0.0,0.0,0.9364215090126848,0.4682107545063424,5.637305940738071,36.56102115492539,25.376659470630944,58.55148111317897,63.52251043042808,42.05416906258132,4.6106342345436975,21.61249940092892,0.0,0.0,0.0,0.0,0.0,0.0,0.0,0.0,0.0,0.0,0.0,0.0,0.0,6.501648433209676,40.7394841432333,77.12030775680599,103.3070990309974,119.62451639325305,125.58587505541529,118.77834508142205,108.53040490614028,89.36738065556536,61.343180165597765,25.9348175693083,0.0,0.0,0.0,0.0,0.0,0.0,0.0,0.0,0.0,0.0,0.0,0.0,0.0,6.879911843545007,39.94691781429209,73.44609503127498,97.36360869646506,111.87995920422576,117.6792915056759,115.23011920833258,105.12633706613296,86.80978698039974,59.41612645866125,25.016264387925546,0.0,0.0,0.0,0.0,0.0,0.0,0.0,0.0,0.0,0.0,0.0,0.0,0.0,4.574594726273158,36.164889416960136,56.73254593105407,78.36291365961293,95.0585944322039,95.11250226810438,95.14854177637493,57.03873032484832,39.964786141922026,54.78732104347695,24.007763862371785,0.0,0.0,0.0,0.0,0.0,0.0,0.0,0.0,0.0,0.0,0.0,0.0,0.0,2.6115015110661,22.24273651614736,49.97862093995062,59.66840301655503,72.70773939124491,70.96058037265043,87.56631380107038,65.08947190766986,32.86894010176445,10.283979683552309,10.19372948637062,0.0,0.0,0.0,0.0,0.0,0.0,0.0,0.0,0.0,0.0,0.0,0.0,0.0,5.583095251826922,27.375792194108545,36.88507387634958,61.1090747883446,84.86486494583328,83.69403520655673,77.01218923199437,66.67430171254159,64.47710312008137,37.425363647397,8.680978698039974,0.0,0.0,0.0,0.0,0.0,0.0,0.0,0.0,0.0,0.0,0.0,0.0,0.0,2.9715937407608224,16.479443722967734,43.4409329984704,44.8276969343595,56.10230881583564,68.27730269805393,79.28146684099568,69.9881193553672,61.99158846145682,44.95368378680105,13.957889556072644,0.0,0.0,0.0,0.0,0.0,0.0,0.0,0.0,0.0,0.0,0.0,0.0,0.0,8.032570402180932,40.595326110151134,72.79768673541594,95.85085790813444,108.85445762756446,117.82375239176876,114.36547386285032,102.8930989654022,82.97354789415662,54.28307078070007,23.575592616135975,0.0,0.0,0.0,0.0,0.0,0.0,0.0,0.0,0.0,0.0,0.0,0.0,0.0,8.789097222851593,43.49484083437088,78.45316385679462,103.68536244133271,119.12026613047615,125.06375646500848,122.61428131465446,100.5517423398598,92.32110606869624,58.60569180209012,28.13201616176853,0.0,0.0,0.0,0.0,0.0,0.0,0.0,0.0,0.0,0.0,0.0,0.0,0.0,8.554991845598423,39.76672027293939,67.86299977944806,103.86555998268544,117.6792915056759,122.68636033119552,119.17417396637664,106.29686395239884,82.68553468100298,55.05746592900066,23.665539960306987,0.0,0.0,0.0,0.0,0.0,0.0,0.0,0.0,0.0,0.0,0.0,0.0,0.0,9.095281616645844,4.070344463496276,79.51557221824885,34.83203331697151,42.6483666695292,58.821625998702686,125.81998043266846,112.27639379520168,92.62729046249048,62.20782551108006,28.024200489967583,0.0,0.0,0.0,0.0,0.0,0.0,0.0,0.0,0.0,0.0,0.0,0.0,0.0,10.067742633929068,44.79165742608896,77.84049221619544,100.92970289718446,114.9778426504388,120.5248983939952,118.5621080317988,107.77387808546962,89.81742022943111,62.36985187179215,28.13201616176853,0.0,0.0,0.0,0.0,0.0,0.0,0.0,0.0,0.0,0.0,0.0,0.0,0.0,10.680111421517571,47.34925110125459,81.85692884379124,107.08943028134,122.18211006841868,127.98144236986884,125.04588813737853,114.05959232206672,91.56457924802558,64.09883970974603,29.35675373694553,1.4948824607007152,0.0,0.0,0.0,0.0,0.0,0.0,0.0,0.0,0.0,0.0,0.0,0.0,10.806098273959122,46.19659254261867,80.27209903891952,103.8473888020448,117.4091466201522,118.14780511319292,115.71650114347952,105.12633706613296,86.05326015972906,60.0645347545203,27.051436619673687,1.026671706194373,0.0,0.0,0.0,0.0,0.0,0.0,0.0,0.0,0.0,0.0,0.0,0.0,10.6262035856171,41.531747619163816,78.65092687276658,102.67686191577896,116.27465924215689,120.88529347670055,119.26442416355832,103.34344139227862,85.06293081481591,58.87583668761383,26.40302832381464,0.9185531813827532,0.0,0.0,0.0,0.0,0.0,0.0,0.0,0.0,0.0,0.0,0.0,0.0,11.148322176023912,45.6202632633007,78.23692680717139,102.1726116530021,116.14867238971532,122.30809692086022,120.21871400020092,109.73697130067666,91.33047387077242,61.7032723952925,28.13201616176853,1.6208693131422671,0.0,0.0,0.0,0.0,0.0,0.0,0.0,0.0,0.0,0.0,0.0,0.0,10.139821650470148,39.20856217426204,78.21905847954145,91.00611829633756,114.88789530626777,119.28229249118824,116.43668560286898,105.8468243785331,86.6117211114171,44.35948617985317,27.06960780031429,1.368895608259164,0.0,0.0,0.0,0.0,0.0,0.0,0.0,0.0,0.0,0.0,0.0,0.0,11.346388045006544,44.37735450748309,60.136310918050704,69.60985594503188,73.95064814706254,108.35020736478756,117.10296222635796,72.25739696436852,85.47723373342178,57.99332301450162,26.76342340652004,1.2247375751770042,0.0,0.0,0.0,0.0,0.0,0.0,0.0,0.0,0.0,0.0,0.0,0.0,9.671610895963806,34.70604646452996,66.92657827043537,99.5429389612954,114.13136848559712,90.98824996870762,99.48903112539487,85.98148399619866,78.14697946300036,56.73254593105407,27.141686816855376,1.5309219689712552,0.0,0.0,0.0,0.0,0.0,0.0,0.0,0.0,0.0,0.0,0.0,0.0,8.464741648416734,30.22139908242781,30.311346426598824,17.235970543638395,46.41252673923123,62.9461811511101,117.04905439045748,106.5491405102926,88.50273531008308,61.75748308420365,27.771923932073808,1.9991327234775975,0.0,0.0,0.0,0.0,0.0,0.0,0.0,0.0,0.0,0.0,0.0,0.0,13.09354706360104,47.52914578959661,79.33567752990683,76.92224188782336,115.78827730700992,120.0388193118589,118.21958127672332,108.22391765933536,90.12360462322536,63.25236554490436,28.906714163079798,2.3592249531723204,0.0,0.0,0.0,0.0,0.0,0.0,0.0,0.0,0.0,0.0,0.0,0.0,13.669876342919002,47.42133011779566,77.75054487202442,99.09259653441896,114.94180314216824,120.32683252501252,117.12113340699857,93.00525101981516,88.98911724523003,60.65873236146819,28.83463514653872,2.3413566255423888,0.0,0.0,0.0,0.0,0.0,0.0,0.0,0.0,0.0,0.0,0.0,0.0,13.489678801566305,46.538816444683455,68.04289446779008,73.69837158916876,94.50013348051588,105.34227126274554,94.17608075909168,91.58244757565552,78.14697946300036,38.39812751769091,18.40649742990425,0.9185531813827532,0.0,0.0,0.0,0.0,0.0,0.0,0.0,0.0,0.0,0.0,0.0,0.0,1.8731458710360465,7.816636205568368,12.355191423570986,23.287276549971654,12.481178276012535,8.284846960074711,28.42033222793285,39.37058853497413,2.9897649214014304,22.27877602441789,10.571992896705952,0.0178683276299315,0.0,0.0,0.0,0.0,0.0,0.0,0.0,0.0,0.0,0.0,0.0,0.0,7.456241122862968,23.19732920580065,37.11917925360275,34.77782262806036,52.049832679969306,42.34218227573496,39.820930961850536,43.47697250674094,41.89214270186921,12.931520702888946,5.979529842802861,0.0,0.0,0.0,0.0,0.0,0.0,0.0,0.0,0.0,0.0,0.0,0.0,0.0,2.215369773100837,9.383294829799487,35.03009918595414,50.73514776062129,85.6389572411232,117.53543632560442,94.91443639912174,92.24902705215516,86.26949720935231,37.65946902465018,18.082444708480068,1.0805795420948443,0.0,0.0,0.0,0.0,0.0,0.0,0.0,0.0,0.0,0.0,0.0,0.0,16.011232968461393,17.379825723709878,53.38268877995792,84.68466740448058,120.32683252501252,125.26182233399108,123.94713741464308,114.43755287939138,95.68883154742234,35.12004653012516,17.72204962577467,1.4588429524301756,0.0,0.0,0.0,0.0,0.0,0.0,0.0,0.0,0.0,0.0,0.0,0.0,19.090945234033832,57.795257145519,91.54640806738496,115.59021143802728,128.84578486234042,133.36647175271312,131.07932581608188,118.8322529173225,98.51657010811168,69.26763204296708,32.41859767488804,3.530054692448853,0.0,0.0,0.0,0.0,0.0,0.0,0.0,0.0,0.0,0.0,0.0,0.0,18.856839856780663,55.72404540550031,87.04389235765291,108.42198352831798,120.27292468911207,123.56887400430776,122.650320822925,110.5655771378884,91.20418416532016,64.3147739063586,31.24807078862219,3.368028331736762,0.0,0.0,0.0,0.0,0.0,0.0,0.0,0.0,0.0,0.0,0.0,0.0,18.62273447952749,54.15708392825852,84.27036448587471,109.39474739861188,122.25388623194904,67.57468371328375,125.22578282572056,113.62711822282024,94.93260757976236,65.26936659601188,31.986426428652244,4.016436627595804,0.0,0.0,0.0,0.0,0.0,0.0,0.0,0.0,0.0,0.0,0.0,0.0,18.352589594003778,53.20249123860522,83.7300747148273,105.36044244338612,56.60655907861253,96.37327935155191,98.13830669777631,73.82435844161031,47.15118523227196,36.68700800736696,18.10031303611,1.7111195103239554,0.0,0.0,0.0,0.0,0.0,0.0,0.0,0.0,0.0,0.0,0.0,0.0,2.0351722317481378,4.502515709732078,4.93468695596788,16.713549100220902,37.15521876187329,50.95138481024452,65.5395114815356,51.70760877790451,51.167319006857085,24.260040420265565,12.174993882218288,0.7743951483005934,0.0,0.0,0.0,0.0,0.0,0.0,0.0,0.0,0.0,0.0,0.0,0.0,0.7925663289412017,3.404067840007301,12.751323161536249,19.793261365793345,20.49588035056354,21.90051261408256,15.056640278808098,17.001865166385222,14.642337360202228,7.996530893910391,3.692081053160945,0.0,0.0,0.0,0.0,0.0,0.0,0.0,0.0,0.0,0.0,0.0,0.0,0.0,0.342223902064791,0.3240527214241826,5.709384957279151,9.617400207052658,17.055773002285697,12.247072898759368,14.624469032572296,8.789097222851593,17.938286675397908,14.858574409825463,7.186096237339258,0.1801975413526997,0.0,0.0,0.0,0.0,0.0,0.0,0.0,0.0,0.0,0.0,0.0,0.0,19.505248152639705,53.22066241924583,81.94687618796226,102.0823614558204,64.09883970974603,55.48994002824714,74.36464821265773,58.425494260737416,92.46496124876772,30.455504459680984,31.427965476964207,4.214502496578435,0.0,0.0,0.0,0.0,0.0,0.0,0.0,0.0,0.0,0.0,0.0,0.0,5.421068891114831,26.619265373437884,53.50867563239947,61.343180165597765,53.54471514067001,58.40762593310749,68.65526325537859,58.9297445235143,79.02949313611258,45.24199985296537,23.19732920580065,3.2238702986546017,0.0,0.0,0.0,0.0,0.0,0.0,0.0,0.0,0.0,0.0,0.0,0.0,21.61249940092892,56.42636153725982,77.17421559270646,90.46613137830082,105.72053467308086,110.63735330141884,106.2250877888684,96.66159541771624,78.90320343066035,46.46673742814238,23.665539960306987,3.4579756759077727,0.0,0.0,0.0,0.0,0.0,0.0,0.0,0.0,0.0,0.0,0.0,0.0,20.90988041615873,48.46587015161997,61.19902213251561,68.85363197737189,72.22135745609798,80.32600687481998,97.0577271556815,82.45142930374982,47.6193959867783,26.295212652013696,13.0575075553305,1.3867639358890955,0.0,0.0,0.0,0.0,0.0,0.0,0.0,0.0,0.0,0.0,0.0,0.0,10.320019191822848,25.106514585107234,39.73068076466885,106.67512736273416,117.89552855529917,123.08249206916082,119.71446373742404,109.88112933375884,91.45646072321397,63.01826016765119,15.07450860643803,4.430436693190997,0.0,0.0,0.0,0.0,0.0,0.0,0.0,0.0,0.0,0.0,0.0,0.0,21.70244674509993,54.19312343652906,50.2308974978444,70.07836955254889,89.92553875424271,117.71533101394644,113.95147379725508,103.90159949095596,86.7919186527698,61.7214435759331,17.97432618366845,2.57546200279556,0.0,0.0,0.0,0.0,0.0,0.0,0.0,0.0,0.0,0.0,0.0,0.0,3.692081053160945,18.74872133196904,32.74265039631223,35.678507481813185,52.55408294274618,75.82349116508792,83.09983759960885,80.66823077688477,91.45646072321397,43.02663007986453,13.993929064343185,1.8371063627655064,0.0,0.0,0.0,0.0,0.0,0.0,0.0,0.0,0.0,0.0,0.0,0.0,24.296079928536106,60.85679823045082,91.6726977728372,113.10469677940276,125.49592771124428,130.28675948714067,126.86482331950344,115.59021143802728,96.64342423707564,68.85363197737189,34.273572365283485,5.11488449732058,0.0,0.0,0.0,0.0,0.0,0.0,0.0,0.0,0.0,0.0,0.0,0.2522765578937795,24.818198518942918,59.18202108140808,88.91703822868895,106.71116687100468,119.10209494983552,123.71303203738994,124.93776961256692,109.79087913657712,91.43859239558402,65.19728757947081,33.211164003829246,5.29508203867328,0.0,0.0,0.0,0.0,0.0,0.0,0.0,0.0,0.0,0.0,0.0,0.9185531813827532,25.989028258219445,60.98308793590305,90.17751245912582,110.5474059572478,121.69572813327171,125.09979597327902,122.1100310518776,111.9523410737775,94.21212026736222,67.52077587738327,34.687875283889355,5.637305940738071,0.0,0.0,0.0,0.0,0.0,0.0,0.0,0.0,0.0,0.0,0.0,0.6662766234889737,22.42293405750005,43.27890663775831,65.32327443191237,73.44609503127498,91.36651337904296,78.47103218442454,103.00091463720314,55.90394009384234,58.44366544137803,63.828694824222325,31.283807443882047,5.097016169690647,0.0,0.0,0.0,0.0,0.0,0.0,0.0,0.0,0.0,0.0,0.0,0.0,20.74785405544664,32.022465936922785,29.78922783619201,32.922847937664926,52.28393805722247,68.18705250087224,40.63136561842168,38.091943123896655,39.13648315772096,24.296079928536106,7.366293778691958,3.0076332490313624,0.0,0.0,0.0,0.0,0.0,0.0,0.0,0.0,0.0,0.0,0.0,0.0,8.32088646834525,24.87240920785406,23.575592616135975,112.45628848354367,127.90936335332776,133.5106297857953,126.7206652864213,116.36490943933858,97.56197741845835,69.75401397811405,34.48980941490672,5.655174268368001,0.0,0.0,0.0,0.0,0.0,0.0,0.0,0.0,0.0,0.0,0.0,2.0351722317481378,28.69047711345656,66.11614361386424,98.85849115716576,121.06549101805328,134.15873522864365,138.2475537257912,133.81681417958953,121.28172806767653,98.39058325567014,52.03196435233937,28.456371736203387,6.087345514603805,0.0,0.0,0.0,0.0,0.0,0.0,0.0,0.0,0.0,0.0,0.0,2.125119575919149,28.78042445762757,64.98135338285825,95.47289735080976,116.1126328814448,128.23341607475194,132.1235629968955,128.10742922231037,116.67109383313284,97.27396420530474,67.75488125463644,35.19212554666623,6.249674728326573,0.0,0.0,0.0,0.0,0.0,0.0,0.0,0.0,0.0,0.0,0.0,2.50338298625448,29.590859114198704,65.30540610428243,93.76177784048582,113.1589074683139,124.09099259471456,127.40511309055086,123.40684764359568,112.67252553316696,94.82448905495072,68.13314466497177,35.24633623557738,6.087345514603805,0.0,0.0,0.0,0.0,0.0,0.0,0.0,0.0,0.0,0.0,0.0,2.68358052760718,29.05056934315128,64.3329450869992,93.54554079086256,113.28489432075546,109.01648398827652,129.40424581402846,125.85632279394969,115.21225088070264,96.66159541771624,67.50260469674267,35.01223085832421,6.159424531144886,0.0,0.0,0.0,0.0,0.0,0.0,0.0,0.0,0.0,0.0,0.0,2.845606888319271,28.13201616176853,62.02762796972736,63.55854993869862,57.03873032484832,64.17091872628711,28.852503474168653,90.01548609841373,112.31243330347225,92.64515879012043,65.73757735051824,33.012795281835935,6.267543055956505,0.0,0.0,0.0,0.0,0.0,0.0,0.0,0.0,0.0,0.0,0.0,2.75565954414826,27.303713177567463,39.37058853497413,70.3485144380726,108.78237861102336,93.54554079086256,125.11766430090894,121.22751737876538,111.41205130273008,94.03192272600953,68.02502614016015,34.70604646452996,6.357793253138192,0.0,0.0,0.0,0.0,0.0,0.0,0.0,0.0,0.0,0.0,0.0,3.2056991180139938,27.79009511271441,59.77621868835598,71.19498860291428,86.59354993077649,38.01986410735557,81.83875766315063,103.52333608062062,86.71983963622873,50.465002875097575,32.74265039631223,15.308916836701878,5.8532401373506335,0.0,0.0,0.0,0.0,0.0,0.0,0.0,0.0,0.0,0.0,0.0,2.68358052760718,4.718752759355318,18.96495838159228,24.674040485860758,30.509412295581456,58.047230850402094,86.03508897908846,51.05920048204546,48.0515672330141,29.014529834880744,24.260040420265565,14.624469032572296,6.357793253138192,0.0,0.0,0.0,0.0,0.0,0.0,0.0,0.0,0.0,0.0,0.0,1.7289878379538863,9.92358460084691,63.72057629941071,67.77274958226637,80.65005959624416,85.58504940522273,80.72244146579592,90.84409193562549,81.1367443844018,75.94978087054014,52.59012245101672,33.89530895494815,6.898083024185615,0.0,0.0,0.0,0.0,0.0,0.0,0.0,0.0,0.0,0.0,0.0,0.1801975413526997,1.6750800020534151,6.807832827003926,10.499913880164872,10.8781772905002,17.361957396079948,21.43230185957622,49.97862093995062,44.0351306054183,33.3731