clear
set defaultbasefrequency=60
new object=circuit.lehigh basekv=115 pu=1.0001 phases=3 bus1=sourcebus angle=30 mvasc3=20000 mvasc1=21000
edit object=vsource.source basekv=115 bus1=sourcebus.1.2.3 pu=1.00 r1=0 x1=0.0001 r0=0 x0=0.0001
new object=vsource.secondsource basekv=4.16 bus1=680.1.2.3 pu=1.00 r1=0 x1=0.0001 r0=0 x0=0.0001
new object=transformer.sub phases=3 windings=2 xhl=0.008 buses=[sourcebus.1.2.3,650.1.2.3] conns=[delta,wye] kvs=[115,4.16] kvas=[5000,5000] %rs=[0.0005,0.0005]
new object=transformer.reg1 phases=1 bank=reg1 xhl=0.01 kvas=[1666,1666] buses=[650.1,rg60.1] kvs=[2.4,2.4] %loadloss=0.01
new object=regcontrol.reg1 transformer=reg1 winding=2 vreg=121 band=2 ptratio=20 ctprim=700 r=3 x=9
new object=transformer.reg2 phases=1 bank=reg1 xhl=0.01 kvas=[1666,1666] buses=[650.2,rg60.2] kvs=[2.4,2.4] %loadloss=0.01
new object=regcontrol.reg2 transformer=reg2 winding=2 vreg=121 band=2 ptratio=20 ctprim=700 r=3 x=9
new object=transformer.reg3 phases=1 bank=reg1 xhl=0.01 kvas=[1666,1666] buses=[650.3,rg60.3] kvs=[2.4,2.4] %loadloss=0.01
new object=regcontrol.reg3 transformer=reg3 winding=2 vreg=121 band=2 ptratio=20 ctprim=700 r=3 x=9
new object=transformer.xfm1 phases=3 windings=2 xhl=2 buses=[633.1.2.3,634.1.2.3] conns=[wye,wye] kvs=[4.16,0.480] kvas=[500,500] %rs=[0.55,0.55] xht=1 xlt=1
new object=linecode.mtx601 nphases=3 basefreq=60 rmatrix=[0.3465|0.1560,0.3375|0.1580,0.1535,0.3414] xmatrix=[1.0179|0.5017,1.0478|0.4236,0.3849,1.0348] units=mi
new object=linecode.mtx602 nphases=3 basefreq=60 rmatrix=[0.7526|0.1580,0.7475|0.1560,0.1535,0.7436] xmatrix=[1.1814|0.4236,1.1983|0.5017,0.3849,1.2112] units=mi
new object=linecode.mtx603 nphases=2 basefreq=60 rmatrix=[1.3238|0.2066,1.3294] xmatrix=[1.3569|0.4591,1.3471] units=mi
new object=linecode.mtx604 nphases=2 basefreq=60 rmatrix=[1.3238|0.2066,1.3294] xmatrix=[1.3569|0.4591,1.3471] units=mi
new object=linecode.mtx605 nphases=1 basefreq=60 rmatrix=[1.3292] xmatrix=[1.3475] units=mi
new object=linecode.mtx606 nphases=3 units=mi rmatrix=[0.791721|0.318476,0.781649|0.28345,0.318476,0.791721] xmatrix=[0.438352|0.0276838,0.396697|-0.0184204,0.0276838,0.438352] cmatrix=[383.948|0,383.948|0,0,383.948]
new object=linecode.mtx607 nphases=1 basefreq=60 rmatrix=[1.3425] xmatrix=[0.5124] cmatrix=[236] units=mi
new object=loadshape.solar_633_shape npts=8760 interval=1 useactual=yes mult=[0.0,0.0,0.0,0.0,0.0,0.0,0.0,0.0,175.20656649591444,407.8741616380671,561.7402457563544,646.421127338765,679.7064254833842,654.5495741004667,579.7152040314166,450.1285520971045,243.8570802156713,16.28925433208176,0.0,0.0,0.0,0.0,0.0,0.0,0.0,0.0,0.0,0.0,0.0,0.0,0.0,0.0,64.72603019456326,216.75931578496787,371.6594748351185,458.5938454582324,531.9293217071279,625.684468232162,380.4270475682206,413.2041339220023,209.7443750309767,7.420921808321517,0.0,0.0,0.0,0.0,0.0,0.0,0.0,0.0,0.0,0.0,0.0,0.0,0.0,0.0,82.1530611408644,360.04194451953407,511.7523574960781,602.3265836225997,638.9075359419551,615.8975300256869,309.0685225404122,347.6889412794381,169.17127567737268,6.736196515601266,0.0,0.0,0.0,0.0,0.0,0.0,0.0,0.0,0.0,0.0,0.0,0.0,0.0,0.0,122.1429304653308,360.359668822923,521.5819531321749,450.91403718048286,367.7151335409631,240.6335023875372,563.8613496706457,261.4341476385728,142.15661968713903,5.458680045724707,0.0,0.0,0.0,0.0,0.0,0.0,0.0,0.0,0.0,0.0,0.0,0.0,0.0,0.0,79.8223474430873,271.20049260316165,342.7730402520029,451.6693678739562,437.8137934490832,362.40869639061225,368.3873557939666,281.1815956617079,136.10220657255996,10.952662791825968,0.0,0.0,0.0,0.0,0.0,0.0,0.0,0.0,0.0,0.0,0.0,0.0,0.0,0.0,65.73951188454019,86.63282672406424,230.7980229680443,139.78251308681575,293.98544380452944,312.2648878703394,258.67024038825843,139.06248509371895,94.50753532680936,16.46650330688904,0.0,0.0,0.0,0.0,0.0,0.0,0.0,0.0,0.0,0.0,0.0,0.0,0.0,0.0,191.21634111668175,446.9542509549127,626.1926800229993,731.1770271594759,768.3331193057993,744.6038208693586,664.5608315489178,523.1845486346856,297.67604693972834,30.87294695222124,0.0,0.0,0.0,0.0,0.0,0.0,0.0,0.0,0.0,0.0,0.0,0.0,0.0,0.0,53.20999514256145,315.1950120015934,429.3448227233328,461.4482158782618,298.1548398135854,303.5701269567639,335.52274816216806,203.4001855841401,135.36526270219937,7.0208245373872336,0.0,0.0,0.0,0.0,0.0,0.0,0.0,0.0,0.0,0.0,0.0,0.0,0.0,0.0,4.687904420836605,9.358892964409446,33.13011335754718,124.40745159990183,162.187224786211,115.82595351670112,49.52968862830567,24.764108841228325,56.623324985219554,1.1532215456341068,0.0,0.0,0.0,0.0,0.0,0.0,0.0,0.0,0.0,0.0,0.0,0.0,0.0,0.0,3.146353171060401,82.4590178774612,90.76618455981912,93.49111174513442,107.45994900038224,170.63854416177324,252.7592444939591,187.95598964232207,71.6188824430855,3.036032232383669,0.0,0.0,0.0,0.0,0.0,0.0,0.0,0.0,0.0,0.0,0.0,0.0,0.0,0.0,170.2619820244233,418.7451869352723,593.2935051637489,697.5489986320343,737.467527082823,717.4839922509199,640.585149682766,508.43243271483294,293.86556171783405,35.749867914657315,0.0,0.0,0.0,0.0,0.0,0.0,0.0,0.0,0.0,0.0,0.0,0.0,0.0,0.0,177.04819069889135,421.2560914995547,588.5717689883847,689.6845866502323,639.4216315161887,603.4952500996485,635.6692486553306,501.21082406905407,291.1421054783678,39.41840686212091,0.0,0.0,0.0,0.0,0.0,0.0,0.0,0.0,0.0,0.0,0.0,0.0,0.0,0.0,76.18911119600025,247.84702083114647,469.63550047392425,495.89923860823166,542.4105463543419,592.9022335679088,502.2279831236536,408.380167010131,263.5339228380533,36.95824992962978,0.0,0.0,0.0,0.0,0.0,0.0,0.0,0.0,0.0,0.0,0.0,0.0,0.0,0.0,79.0258302658413,324.3567982222337,338.7683901780376,644.3860737566416,689.8721322459828,675.3443355681062,604.1851237028403,474.15939443259487,259.25861872786766,38.776338999022336,0.0,0.0,0.0,0.0,0.0,0.0,0.0,0.0,0.0,0.0,0.0,0.0,0.0,0.0,91.7443635494195,232.0836296400905,379.6437689036159,409.7547659060431,445.2891402538186,428.43872008033446,343.8277084257525,221.5501864152361,202.4859927389723,34.49882847006317,0.0,0.0,0.0,0.0,0.0,0.0,0.0,0.0,0.0,0.0,0.0,0.0,0.0,0.0,70.63555514301356,334.9910012377463,582.2636177148493,679.4740160392384,719.6146573132297,702.9620793564393,629.7567818151823,373.1782264242348,300.1148751574087,56.17248008249397,0.0,0.0,0.0,0.0,0.0,0.0,0.0,0.0,0.0,0.0,0.0,0.0,0.0,0.0,9.314764588938752,221.0412391514741,207.1871356724501,212.1971772342227,308.95820160173554,497.9262019881855,251.84578712171577,183.57624837685583,23.91316666756847,0.377297610274424,0.0,0.0,0.0,0.0,0.0,0.0,0.0,0.0,0.0,0.0,0.0,0.0,0.0,0.0,120.63226907838408,134.0200827232678,70.87899668102688,87.70661719385109,697.8968773253283,682.2268911956852,337.1326983939239,484.2611150507609,285.5907558441546,56.82116720191316,0.0,0.0,0.0,0.0,0.0,0.0,0.0,0.0,0.0,0.0,0.0,0.0,0.0,0.0,0.0,61.64734053255793,232.11378402999543,616.6043195061425,667.6064249293202,250.9301233306989,165.22105059982113,191.7870681061028,71.77921554062901,59.2894143365739,0.0,0.0,0.0,0.0,0.0,0.0,0.0,0.0,0.0,0.0,0.0,0.0,0.0,0.0,187.4021785301649,443.3195437619766,613.8514443496957,711.6619885804864,747.2147497513746,730.9078440691046,663.7091539023335,534.7020546325365,323.1815124888643,72.6125063641006,0.0,0.0,0.0,0.0,0.0,0.0,0.0,0.0,0.0,0.0,0.0,0.0,0.0,0.0,54.78979098441226,146.60181804288683,383.5631041183379,677.5507543416409,724.8769660881098,716.2072112539677,650.0190608854756,521.6672679914183,319.71302217686787,74.23128227095053,0.0,0.0,0.0,0.0,0.0,0.0,0.0,0.0,0.0,0.0,0.0,0.0,0.0,0.0,182.69220992159296,425.11585340739134,595.3623905003998,703.6181212051035,749.0806445608604,733.228996618863,660.5598588395751,527.2862811346864,319.4739934764016,75.30727915951091,0.0,0.0,0.0,0.0,0.0,0.0,0.0,0.0,0.0,0.0,0.0,0.0,0.0,0.0,180.6380340434322,430.672351352076,611.3692232294692,723.3207053798434,770.2151945196243,753.7759037109422,681.6135067766426,549.3085469133358,342.0360963816424,86.1974267527534,0.0,0.0,0.0,0.0,0.0,0.0,0.0,0.0,0.0,0.0,0.0,0.0,0.0,0.0,49.45246397123197,170.04722393046595,567.250408906795,470.7931348571055,712.5394077794286,588.6467872266849,621.0605499557579,428.2217555676036,266.5449489910036,57.08446650888828,0.0,0.0,0.0,0.0,0.0,0.0,0.0,0.0,0.0,0.0,0.0,0.0,0.0,0.0,51.34262938722664,304.8204309284335,331.215083243304,501.6955007263072,716.8948784383861,709.2621404278052,532.5838926099432,498.1887658222361,290.1080305465045,65.84174262104729,0.0,0.0,0.0,0.0,0.0,0.0,0.0,0.0,0.0,0.0,0.0,0.0,0.0,0.0,102.26898109917973,204.14227776497225,326.43671565275247,251.7406144935106,133.69353274478462,39.93323790927899,115.66782683793112,221.672274920705,90.5528974117108,29.82636898064131,0.0,0.0,0.0,0.0,0.0,0.0,0.0,0.0,0.0,0.0,0.0,0.0,0.0,0.0,152.0531433593664,274.20637044564035,188.07881362071555,555.9631059343162,759.7795691937298,759.6192360961862,696.0096538010316,565.4970414547595,353.06230646591945,97.88409152324188,0.0,0.0,0.0,0.0,0.0,0.0,0.0,0.0,0.0,0.0,0.0,0.0,0.0,0.0,212.4884245123293,483.8463083213364,667.94547794752,776.9079981326793,816.6044137602656,797.5586069071145,717.720079059688,583.5337794554807,374.0321104895928,108.82866411289824,0.0,0.0,0.0,0.0,0.0,0.0,0.0,0.0,0.0,0.0,0.0,0.0,0.0,0.0,108.14099692847994,453.0270508926045,501.7859638960221,560.7554475104334,563.7326419088563,590.1081719276893,506.10024807120686,366.1309248615652,220.93459557741997,94.17583703785466,0.0,0.0,0.0,0.0,0.0,0.0,0.0,0.0,0.0,0.0,0.0,0.0,0.0,0.0,21.443448587058683,103.4825114246238,127.22357742785655,357.1897805182783,381.08088299811135,201.15699316437988,158.78933987496768,88.50681173571967,187.58825318006637,43.416437679765686,0.0,0.0,0.0,0.0,0.0,0.0,0.0,0.0,0.0,0.0,0.0,0.0,0.0,0.0,34.04871904026211,220.8595773391197,439.8267828434713,413.57996058642766,353.730115881376,430.99816585763466,399.5103635405217,336.6053643070491,103.63769621169574,8.116679194909441,0.0,0.0,0.0,0.0,0.0,0.0,0.0,0.0,0.0,0.0,0.0,0.0,0.0,0.0,172.343370400791,402.68392920978914,125.72836097232458,185.12147699125464,276.70403649728155,375.0426502878716,291.28258080694945,512.5356361606829,328.26215945139006,98.0753144836149,0.0,0.0,0.0,0.0,0.0,0.0,0.0,0.0,0.0,0.0,0.0,0.0,0.0,0.0,53.12909312086519,153.55203717952094,172.79421530351658,236.87744216205672,520.2455988283374,456.8691614502529,425.4997702739863,221.4097110866544,137.3024983853628,94.93852246057315,0.0,0.0,0.0,0.0,0.0,0.0,0.0,0.0,0.0,0.0,0.0,0.0,0.0,0.0,182.88122646319243,412.3399532357012,81.50658044021876,140.25615765020115,145.5162600063078,161.05974479293482,178.46250513272707,127.45157403445512,34.282599430256774,29.166649767354446,0.0,0.0,0.0,0.0,0.0,0.0,0.0,0.0,0.0,0.0,0.0,0.0,0.0,0.0,183.07244942356547,105.75144539674191,271.2380017223117,429.2058183406,724.8262184563185,716.3653379327378,648.422349166361,516.207852472769,324.5406664533616,100.40970554601456,0.0,0.0,0.0,0.0,0.0,0.0,0.0,0.0,0.0,0.0,0.0,0.0,0.0,0.0,49.28771803614137,18.62438086740592,563.2795905873571,669.54145419371,716.8316277668781,351.689913988781,651.1082962866772,531.0930889919583,346.9093399794559,111.25204739916376,0.0,0.0,0.0,0.0,0.0,0.0,0.0,0.0,0.0,0.0,0.0,0.0,0.0,0.0,73.0648222126752,282.8871573736501,389.15049192585207,381.9200576049791,140.82541369377313,137.3069112229099,221.33469284835425,3.934044673212269,50.47697775507656,9.244159188185645,0.0,0.0,0.0,0.0,0.0,0.0,0.0,0.0,0.0,0.0,0.0,0.0,0.0,0.0,190.75446412008856,435.3948230003648,606.8651870397605,714.4229539391027,764.0725246541039,753.7781101297155,683.0910718819864,559.932453307905,363.9245060880305,120.5337157064995,0.0,0.0,0.0,0.0,0.0,0.0,0.0,0.0,0.0,0.0,0.0,0.0,0.0,0.0,15.116175017485842,99.4977191196202,403.763603462972,480.71098724414367,591.3180248885109,374.8668722589133,490.43835214373337,550.2396556357675,365.80511035600654,125.0995316218672,0.0,0.0,0.0,0.0,0.0,0.0,0.0,0.0,0.0,0.0,0.0,0.0,0.0,0.0,210.6423874718053,215.9708888098915,284.21027316484646,713.4234462346916,758.5858966372476,470.9071331604048,675.424502116878,557.2075261225899,373.9291442801611,130.0617674435466,0.0,0.0,0.0,0.0,0.0,0.0,0.0,0.0,0.0,0.0,0.0,0.0,0.0,1.8982556181643049,205.19768141164636,441.1697564036294,601.7507083227072,701.6242541067528,739.2709066937255,733.4886185612155,657.9754069828415,529.1742401319076,338.95814219256147,112.72152230233786,0.0,0.0,0.0,0.0,0.0,0.0,0.0,0.0,0.0,0.0,0.0,0.0,0.0,1.8379468383543576,70.50390548952599,155.0913820105236,206.194982697284,316.96823722259074,726.4707359155263,715.3746559034207,650.1882196581132,532.6795040901297,191.3354877304527,71.58799258025601,0.0,0.0,0.0,0.0,0.0,0.0,0.0,0.0,0.0,0.0,0.0,0.0,0.0,0.0,0.0,8.594001122917437,40.03767506455964,61.09941320379684,133.21106250630507,161.1274083019899,104.1076634104586,88.76790462392125,69.2874332723839,28.1060978102088,0.0,0.0,0.0,0.0,0.0,0.0,0.0,0.0,0.0,0.0,0.0,0.0,0.0,2.1277231706119077,2.4182349757939687,118.61633779229793,227.38837049000875,579.1312385293545,828.2815173827355,823.6017031640685,750.4037603520567,618.5783288355315,416.437272898155,152.17155450021278,0.0,0.0,0.0,0.0,0.0,0.0,0.0,0.0,0.0,0.0,0.0,0.0,0.0,7.15173871795029,240.1627997158498,488.1238188502956,651.2524489798814,758.2343405793313,808.0780761464033,796.4929066394975,727.6599956344616,455.6217993702813,395.5152746145751,142.82222268382196,0.0,0.0,0.0,0.0,0.0,0.0,0.0,0.0,0.0,0.0,0.0,0.0,0.0,8.269657563207844,247.60063740143508,506.4540105478969,679.3335407106567,787.1531359711252,833.3680481286574,817.0574650817648,742.962245301849,608.8391963691495,414.1631906155653,156.6314623144508,0.0,0.0,0.0,0.0,0.0,0.0,0.0,0.0,0.0,0.0,0.0,0.0,0.0,9.544232141386356,245.6634017182717,488.6062890887752,648.83789136871,747.717077758816,789.3867672428668,775.1090313593241,708.3883985934855,585.4798408137382,396.08453065814695,150.23946712752095,0.0,0.0,0.0,0.0,0.0,0.0,0.0,0.0,0.0,0.0,0.0,0.0,0.0,8.38733323112969,230.50530474408868,470.5746993985255,631.3027459025056,734.245420200538,778.067838934634,762.4228588844244,699.755417405569,569.7686682003225,377.8161186862047,127.39567809219226,0.0,0.0,0.0,0.0,0.0,0.0,0.0,0.0,0.0,0.0,0.0,0.0,0.0,6.748699555317962,207.1363880406588,430.74148580698017,360.0492992487792,403.5069234123175,516.552789274365,723.133159784093,579.22832095539,421.94743604859553,315.484788333851,102.04098449258116,0.0,0.0,0.0,0.0,0.0,0.0,0.0,0.0,0.0,0.0,0.0,0.0,0.0,9.07647136139701,224.25525583158955,457.92162320522885,617.4618809361228,715.8247653332218,753.8354770178275,755.9161299212708,683.5632454995226,426.53090331415154,372.4920301856656,141.9565710516719,0.0,0.0,0.0,0.0,0.0,0.0,0.0,0.0,0.0,0.0,0.0,0.0,0.0,11.74182523982686,235.86101858038177,466.61197128125735,630.1281956420607,728.933099266791,568.1226797952656,461.1194594810051,392.3865727937029,563.3421057859406,196.0837009310992,142.81266153580333,0.0,0.0,0.0,0.0,0.0,0.0,0.0,0.0,0.0,0.0,0.0,0.0,0.0,0.0,4.545222673481365,19.542986550120848,45.47355544962449,215.715679705086,368.8484973176353,247.13214114852124,224.66491425054247,545.1568022544681,160.96339783982378,140.4275228416124,0.0,0.0,0.0,0.0,0.0,0.0,0.0,0.0,0.0,0.0,0.0,0.0,0.0,14.384379457596852,247.6888941523765,488.5261225400034,648.48412889202,747.0264686826997,782.6424805250958,765.0521745895533,701.2388662943087,581.2655809562871,401.40126442944097,106.5979747328547,0.0,0.0,0.0,0.0,0.0,0.0,0.0,0.0,0.0,0.0,0.0,0.0,0.0,0.0,0.0,63.04106172450732,198.86158216697936,299.01093029771687,133.81635672317807,83.53280834724805,115.023552556059,132.6653415963175,57.41469385199398,50.35415377668312,0.0,0.0,0.0,0.0,0.0,0.0,0.0,0.0,0.0,0.0,0.0,0.0,0.0,15.956085097278027,22.768035324103984,70.69880581452155,89.64679476871255,383.1674196849506,496.2824200019022,557.1523656532514,257.656023225357,234.08338052183737,371.46972282059454,88.57226882600118,0.0,0.0,0.0,0.0,0.0,0.0,0.0,0.0,0.0,0.0,0.0,0.0,0.0,19.79010545275673,240.4849368567859,395.89404317069847,621.5341945191433,718.1245891681693,754.1024536894251,741.8980159800807,684.0104130376258,146.7165518191106,386.2939150870493,153.74399561281845,0.0,0.0,0.0,0.0,0.0,0.0,0.0,0.0,0.0,0.0,0.0,0.0,0.0,0.0,19.99971523624252,90.4455183647321,116.16500653490093,160.10068809937175,174.31076047385935,110.91152343511494,221.3685246028817,138.68886484806706,130.8060660431523,63.86405592703574,0.0,0.0,0.0,0.0,0.0,0.0,0.0,0.0,0.0,0.0,0.0,0.0,0.0,28.828332222079137,212.39354850506732,408.3566318765467,721.9475774297804,827.8402336280285,755.6873978417476,675.9312429618664,584.1155385387692,464.2165359661233,278.21690430300185,71.13052842120983,0.0,0.0,0.0,0.0,0.0,0.0,0.0,0.0,0.0,0.0,0.0,0.0,0.0,43.40467011297351,310.90205654121945,551.9591913332754,702.1067243452325,788.0533548307274,824.9130513884726,809.8843976490036,740.653595791807,621.3363523024498,441.62648508975104,186.64390594499352,0.0,0.0,0.0,0.0,0.0,0.0,0.0,0.0,0.0,0.0,0.0,0.0,0.0,6.086038450333058,64.3649129886281,166.15289479517728,250.64108247136585,193.68458825134252,231.24739692492085,601.7051090013874,339.1243590735011,505.4611220998064,400.6040117792704,165.78074549537448,0.5949975959298422,0.0,0.0,0.0,0.0,0.0,0.0,0.0,0.0,0.0,0.0,0.0,0.0,49.27227310472663,299.8545177421315,541.7258210616217,699.3126627050129,788.8447236975018,828.9338818667771,812.9697065673296,721.454075097433,584.421495275366,400.20244356248713,148.5743564264268,0.2596219423525763,0.0,0.0,0.0,0.0,0.0,0.0,0.0,0.0,0.0,0.0,0.0,0.0,51.18818007307922,323.5536617886672,566.1604380326689,725.6940765072422,817.9768062374043,851.8666631259719,835.6994972993591,755.962464715515,622.9551282092996,433.4965673822004,185.23988813210096,1.5709701667566662,0.0,0.0,0.0,0.0,0.0,0.0,0.0,0.0,0.0,0.0,0.0,0.0,55.98714090551706,314.64193636236075,556.3529065843074,716.4653622504712,812.2320272240445,850.611946316755,828.6367508052746,759.2485577422325,635.9825601211727,450.12708115125554,196.72135595665077,3.5574825358623565,0.0,0.0,0.0,0.0,0.0,0.0,0.0,0.0,0.0,0.0,0.0,0.0,33.74717514121237,286.99036081950004,515.0296248477015,390.5898124391212,390.3941766412011,621.868834699796,738.2964050687476,635.358879081187,556.9273109383508,426.4551496029268,185.61424385067733,2.785235965125231,0.0,0.0,0.0,0.0,0.0,0.0,0.0,0.0,0.0,0.0,0.0,0.0,21.920035042142167,187.37790792365604,194.0692405908621,169.700816183021,181.77507518472703,119.49302151831569,281.4007665932123,92.81668307335734,141.89479132601292,60.93319632285722,7.986500487270897,0.0,0.0,0.0,0.0,0.0,0.0,0.0,0.0,0.0,0.0,0.0,0.0,0.0,56.31369088400019,235.54108785821927,540.376228245143,720.5384113064163,763.9143979753339,850.1309470241246,724.6879495465105,669.928312952003,526.0205322316021,368.5999074691504,88.02287055139107,0.0,0.0,0.0,0.0,0.0,0.0,0.0,0.0,0.0,0.0,0.0,0.0,0.0,45.92587129819909,337.8468426036246,579.4952976269877,744.0772222554083,846.9309043295748,888.8837508895625,872.4304860953148,796.8679978309983,667.9270911244072,478.14271579174937,198.4475109104793,2.251282621929848,0.0,0.0,0.0,0.0,0.0,0.0,0.0,0.0,0.0,0.0,0.0,0.0,51.954542860420254,336.9900166465686,564.9689718949602,707.8985736257608,792.5029660240222,820.8076415238492,809.7431868474974,743.7528786956988,613.6962595626237,446.9998502762325,199.98612026855756,4.934287850547974,0.0,0.0,0.0,0.0,0.0,0.0,0.0,0.0,0.0,0.0,0.0,0.0,49.25462175453836,281.28235545236595,389.1424017236825,526.9156027807327,541.5382754658713,556.07783971054,528.1342814166483,413.9594646154756,415.6135432227021,362.4484119285359,145.2375157679179,3.2184295176625333,0.0,0.0,0.0,0.0,0.0,0.0,0.0,0.0,0.0,0.0,0.0,0.0,39.96118588041043,164.77388306171812,291.31199972392994,653.0624478471043,619.4579544532472,516.6042723790807,389.3483341425457,411.786142123544,286.6130632092257,190.1197509862351,90.86326698585464,0.0,0.0,0.0,0.0,0.0,0.0,0.0,0.0,0.0,0.0,0.0,0.0,0.0,25.44956960687309,219.6710530931091,455.35850006330605,408.7287811763495,854.272395062049,878.4437127261211,889.2323650557809,811.5664242273615,678.0972107245528,479.6055714386029,215.15966217415524,7.078191425499137,0.0,0.0,0.0,0.0,0.0,0.0,0.0,0.0,0.0,0.0,0.0,0.0,69.50881062266187,362.074791682884,594.6092662257,746.7072734334616,831.0976432106902,864.237317716256,845.2466713324434,756.0352765350417,639.2399697038343,459.3410859495362,209.51490747852912,7.011263389368585,0.0,0.0,0.0,0.0,0.0,0.0,0.0,0.0,0.0,0.0,0.0,0.0,95.99686799894526,368.23364195274365,603.3437426771991,758.2556692941421,850.0368064897871,884.1311248513688,865.8266747061255,786.5978539131189,650.8508807630982,461.7321084271232,210.80272056934885,7.005379605972492,0.0,0.0,0.0,0.0,0.0,0.0,0.0,0.0,0.0,0.0,0.0,0.0,86.78212772774008,370.97474954239823,591.7181221594451,736.4672839054873,829.3192696792213,868.3493468372,859.1419612952399,792.4838437279849,664.7726477511771,480.9720801323453,223.6381940479244,8.302753844810862,0.0,0.0,0.0,0.0,0.0,0.0,0.0,0.0,0.0,0.0,0.0,0.0,87.31828748970901,347.5322855465172,556.4110089453437,693.3332678287342,774.3514942470773,810.4418861257834,795.9390955273401,652.275491817877,229.6470078411837,205.2822607979652,49.47452815896731,1.279722888650093,0.0,0.0,0.0,0.0,0.0,0.0,0.0,0.0,0.0,0.0,0.0,0.0,15.887686115298456,191.2104573332857,290.522837275929,234.17825652909931,374.275552027606,419.8829635494917,606.5040698338253,718.2415293631667,468.95518801875113,373.0811439981993,180.08642935004855,6.738402934374801,0.0,0.0,0.0,0.0,0.0,0.0,0.0,0.0,0.0,0.0,0.0,0.0,9.485394307425432,46.60765469922129,105.15644780081207,490.17873020138086,518.180390856309,510.8808220805319,494.62907686760025,475.4567686714332,458.7880103103035,342.2964537969195,10.46798613457286,0.0,0.0,0.0,0.0,0.0,0.0,0.0,0.0,0.0,0.0,0.0,0.0,0.0,91.33323418461754,110.00394984626767,78.18077187557752,194.71939865613032,390.066155716869,56.64097633540784,52.53924383540693,195.5085611041312,92.86816617807312,241.8360006191136,115.06326809398264,8.666077469519566,0.0,0.0,0.0,0.0,0.0,0.0,0.0,0.0,0.0,0.0,0.0,0.0,88.49504416892748,164.63782057068352,206.79218671198737,405.8758817021693,609.8122270482783,680.8596470290182,682.469597260774,693.7944093524029,628.6631335764338,469.3427822499687,218.7222930204892,9.30373249507108,0.0,0.0,0.0,0.0,0.0,0.0,0.0,0.0,0.0,0.0,0.0,0.0,116.95196256412828,381.0617607020741,609.4459615318715,768.7170361723942,870.7521368815792,911.563529462725,893.8033292816202,816.9978917748793,681.4274321267411,492.2718861445407,230.71050169002743,11.696961391431657,0.0,0.0,0.0,0.0,0.0,0.0,0.0,0.0,0.0,0.0,0.0,0.0,127.49349599115229,405.2529361351079,631.677101621082,784.5686841143915,876.2417067901333,907.6765550566817,885.1100393138938,804.9398131775125,672.4759911625111,486.4947463225025,229.75732877986047,11.212284734178544,0.0,0.0,0.0,0.0,0.0,0.0,0.0,0.0,0.0,0.0,0.0,0.0,121.59206124487164,373.2525091896105,582.0569498230615,723.9693924992627,800.1651229515836,824.2562740668836,803.6299358989575,703.5408965480299,618.7224815287357,371.5028191021975,175.23672088581944,9.80753144836149,0.0,0.0,0.0,0.0,0.0,0.0,0.0,0.0,0.0,0.0,0.0,0.0,71.79907330959082,249.19955553932323,556.618412310056,653.5949302444508,805.321523625334,836.176819227367,811.6407069927373,738.6192776826082,623.6060217474924,457.1420219052467,217.8581123341881,11.118879672765578,0.0,0.0,0.0,0.0,0.0,0.0,0.0,0.0,0.0,0.0,0.0,0.0,73.42888131030841,208.1778177017671,232.0998100444297,320.74489068995763,380.58076140944354,381.8994643630927,198.07241971897844,287.6905310436351,208.47862612789237,87.4646466016868,157.72878791782202,10.015670285998258,0.0,0.0,0.0,0.0,0.0,0.0,0.0,0.0,0.0,0.0,0.0,0.0,44.47184132643975,23.788871743326013,133.19120473734324,159.50789692221542,223.0034809140709,356.8713207419648,423.4588329084668,342.26777035286347,218.13832751842705,150.25491205893567,45.84717569527636,0.0,0.0,0.0,0.0,0.0,0.0,0.0,0.0,0.0,0.0,0.0,0.0,0.0,100.9929355751522,133.2448942608326,449.4967808549491,708.606098579141,786.8037863319821,383.3380494034373,347.1064467232249,344.80073910488125,311.2830315161165,209.2339568213657,30.15071254035089,12.536871471223844,0.0,0.0,0.0,0.0,0.0,0.0,0.0,0.0,0.0,0.0,0.0,0.0,130.6413201080617,386.9337765313743,587.6914078977444,720.2192160571782,800.1930709227149,831.4219867703998,808.6473321899751,741.6928190341418,620.6155888364284,452.103296899418,220.72572126685864,17.588099516769155,0.0,0.0,0.0,0.0,0.0,0.0,0.0,0.0,0.0,0.0,0.0,0.0,56.07539765645845,374.207888518551,582.3724677076768,585.7276951892985,728.5977236132139,633.0597907191637,820.836324967905,332.13515987186787,488.340047890102,233.072105250634,132.57046558905552,18.74573389995033,0.0,0.0,0.0,0.0,0.0,0.0,0.0,0.0,0.0,0.0,0.0,0.0,4.408424709522217,18.586871748255835,35.34241591447792,261.0502307719778,109.22434854628544,63.83831437467784,459.2859254801979,107.93285809084315,134.14437764751025,104.86372957685649,82.83705096066014,10.367961816839289,0.0,0.0,0.0,0.0,0.0,0.0,0.0,0.0,0.0,0.0,0.0,0.0,75.83314230053666,246.25692836835248,494.7416042250504,651.0060655501701,836.7446043250898,872.7121722254026,846.0983489790277,774.5258013301864,649.6035186831265,475.1206575449314,235.00639904209936,22.64300492693702,0.0,0.0,0.0,0.0,0.0,0.0,0.0,0.0,0.0,0.0,0.0,0.0,7.839405902368588,7.779097122558641,108.9411914703485,107.38566623500655,262.9859955092922,183.67038891119333,372.133119398504,157.78100649546235,123.94851649500664,104.36360798818863,51.17347061458897,1.3782762605346408,0.0,0.0,0.0,0.0,0.0,0.0,0.0,0.0,0.0,0.0,0.0,0.0,138.65944593108662,210.07166048238437,570.6085782801148,715.6092717663398,811.909154610184,854.0988234518643,548.1987182702478,531.0055677139413,654.893775429138,391.3120468509915,235.74040102076188,22.50914885467592,0.0,0.0,0.0,0.0,0.0,0.0,0.0,0.0,0.0,0.0,0.0,0.0,170.94891373591707,441.6308979272981,650.2021936436789,797.2658886831591,878.1230465310341,899.3348211468716,871.3140381959062,792.7824457353366,663.9400924006302,486.12700986024674,242.6692914425852,23.56087513672743,0.0,0.0,0.0,0.0,0.0,0.0,0.0,0.0,0.0,0.0,0.0,0.6839898197957395,168.16809060833893,423.2683454210183,618.0318724526193,754.6349360867717,834.4859669739149,858.1409826449798,840.3432733447248,762.87370378715,634.7219595285598,462.5161225646525,229.6411240577876,23.928611598983203,0.0,0.0,0.0,0.0,0.0,0.0,0.0,0.0,0.0,0.0,0.0,0.1323851264120785,160.81262589029893,405.4625459185937,607.4903390255953,756.8045812140807,845.3981787548927,881.4481196227508,862.1390134626245,785.8050141004954,659.3411802036594,479.1510491712547,238.64331265380895,26.26668002600541,0.0,0.0,0.0,0.0,0.0,0.0,0.0,0.0,0.0,0.0,0.0,1.7717542751483184,164.91215197152633,312.49141353108894,533.5370655201101,616.1056688633236,814.87384596889,673.8939829609694,663.6863542416736,617.2272650732036,472.3155638108444,336.8340963865722,171.27252182270217,22.424569468357088,0.0,0.0,0.0,0.0,0.0,0.0,0.0,0.0,0.0,0.0,0.0,1.7085036036403254,165.3262232280263,412.0891569684428,607.9617771702071,740.9977971204785,822.7912120012567,857.6173259227277,844.3736649710481,774.303688506984,422.6284839766933,473.30109752968986,235.2189507172832,27.32134819975498,0.0,0.0,0.0,0.0,0.0,0.0,0.0,0.0,0.0,0.0,0.0,2.3417457916447684,167.3509801892066,406.4833823378158,595.0240729551246,736.186333248324,825.6750013382665,871.6736844559923,870.281434209892,802.3325616601189,678.0935333599303,500.29516027803714,251.67000909275748,29.64470716828696,0.0,0.0,0.0,0.0,0.0,0.0,0.0,0.0,0.0,0.0,0.0,2.9235048749334025,191.0721884234776,451.1957233105707,648.5054576068309,788.6093723616581,872.225289149376,901.345604122486,872.5694904780473,793.1479757788188,662.8192316636745,480.1145187023649,241.2763057235603,30.431663197514315,0.0,0.0,0.0,0.0,0.0,0.0,0.0,0.0,0.0,0.0,0.0,2.9308596041785178,127.32875005606172,289.2666495208633,482.17752025561975,769.9526306855736,852.0622989238918,876.4086591439975,850.1611014140295,772.8150913077726,653.7089285477499,479.0914758643692,244.7587700211225,31.345856042682165,0.0,0.0,0.0,0.0,0.0,0.0,0.0,0.0,0.0,0.0,0.0,4.362825388202502,178.40293182584162,417.03668333163193,603.2606342367294,735.3375974934377,807.7721194098066,826.3722296707035,802.2810785554032,627.8798549118288,606.3054921442072,439.902536554696,224.0515298314999,32.29167422360402,0.0,0.0,0.0,0.0,0.0,0.0,0.0,0.0,0.0,0.0,0.0,3.984792305003566,58.581153910269286,288.1060732459841,190.5301448781125,451.1574787184962,578.428861886446,577.4595085719398,697.4099942493016,294.3325870248988,177.57626025869064,294.69223328498504,117.1395081598787,30.564783796850904,0.0,0.0,0.0,0.0,0.0,0.0,0.0,0.0,0.0,0.0,0.0,5.371158767707834,175.41691175232472,403.36718355666034,376.2811866927491,489.8963085983684,549.41519048739,344.6183418196024,387.20443056759456,207.3974809288604,153.30933111443213,35.29755206608272,26.81019451721945,0.6670739425319738,0.0,0.0,0.0,0.0,0.0,0.0,0.0,0.0,0.0,0.0,0.0,5.72124387977533,28.164935644169724,34.32378591402942,101.51291493278188,203.3619409920655,203.25603289093587,230.5626716322006,318.7002759598155,131.1951312202189,160.13084248927672,104.48128365611048,46.76578137799128,4.8894240021527695,0.0,0.0,0.0,0.0,0.0,0.0,0.0,0.0,0.0,0.0,0.0,8.274805873679425,29.272557868484117,91.88336793215215,180.5681641156036,249.1238018280985,216.81079888968367,219.568822356602,351.3221775265252,375.8634380716265,400.4929553676692,192.0613995069456,47.07835737090869,36.57506853595927,0.0,0.0,0.0,0.0,0.0,0.0,0.0,0.0,0.0,0.0,0.0,10.039205419582624,123.73375840104926,185.0310138215397,257.36771783894847,265.02104909141565,404.8484260266266,490.2287423602477,515.0928755192095,596.197887742645,619.4042649297579,444.0631068886578,224.057413614896,37.96952520083317,0.0,0.0,0.0,0.0,0.0,0.0,0.0,0.0,0.0,0.0,0.0,13.940889284116388,200.03392600865075,442.7245461660467,630.1384922630039,764.6285421850346,847.4913346980526,874.1956211141423,857.0201219080242,785.5299472267282,660.3605456770324,484.8627319030114,250.29246830514737,37.8761201394202,0.0,0.0,0.0,0.0,0.0,0.0,0.0,0.0,0.0,0.0,0.0,15.407422295592417,218.82305281114728,469.9745534921241,654.1266771688726,778.8422919241448,848.1738535719994,867.063740165154,844.1809710648262,765.9531289220798,636.2083503089976,461.4217388529793,238.6256613036207,37.98276371347437,0.0,0.0,0.0,0.0,0.0,0.0,0.0,0.0,0.0,0.0,0.0,16.830562404522258,218.03315489022185,462.5381867523879,637.2188901072766,765.2044174849271,833.1959474643216,845.5643956358324,811.5112637580231,747.5582156071215,636.7025881142695,470.089287268348,246.19882600731611,39.40149098485715,0.0,0.0,0.0,0.0,0.0,0.0,0.0