clear
set defaultbasefrequency=60
new object=circuit.lehigh basekv=115 pu=1.0001 phases=3 bus1=sourcebus angle=30 mvasc3=20000 mvasc1=21000
edit object=vsource.source basekv=115 bus1=sourcebus.1.2.3 pu=1.00 r1=0 x1=0.0001 r0=0 x0=0.0001
new object=vsource.secondsource basekv=4.16 bus1=680.1.2.3 pu=1.00 r1=0 x1=0.0001 r0=0 x0=0.0001
new object=transformer.sub phases=3 windings=2 xhl=0.008 buses=[sourcebus.1.2.3,650.1.2.3] conns=[delta,wye] kvs=[115,4.16] kvas=[5000,5000] %rs=[0.0005,0.0005]
new object=transformer.reg1 phases=1 bank=reg1 xhl=0.01 kvas=[1666,1666] buses=[650.1,rg60.1] kvs=[2.4,2.4] %loadloss=0.01
new object=regcontrol.reg1 transformer=reg1 winding=2 vreg=121 band=2 ptratio=20 ctprim=700 r=3 x=9
new object=transformer.reg2 phases=1 bank=reg1 xhl=0.01 kvas=[1666,1666] buses=[650.2,rg60.2] kvs=[2.4,2.4] %loadloss=0.01
new object=regcontrol.reg2 transformer=reg2 winding=2 vreg=121 band=2 ptratio=20 ctprim=700 r=3 x=9
new object=transformer.reg3 phases=1 bank=reg1 xhl=0.01 kvas=[1666,1666] buses=[650.3,rg60.3] kvs=[2.4,2.4] %loadloss=0.01
new object=regcontrol.reg3 transformer=reg3 winding=2 vreg=121 band=2 ptratio=20 ctprim=700 r=3 x=9
new object=transformer.xfm1 phases=3 windings=2 xhl=2 buses=[633.1.2.3,634.1.2.3] conns=[wye,wye] kvs=[4.16,0.480] kvas=[500,500] %rs=[0.55,0.55] xht=1 xlt=1
new object=linecode.mtx601 nphases=3 basefreq=60 rmatrix=[0.3465|0.1560,0.3375|0.1580,0.1535,0.3414] xmatrix=[1.0179|0.5017,1.0478|0.4236,0.3849,1.0348] units=mi
new object=linecode.mtx602 nphases=3 basefreq=60 rmatrix=[0.7526|0.1580,0.7475|0.1560,0.1535,0.7436] xmatrix=[1.1814|0.4236,1.1983|0.5017,0.3849,1.2112] units=mi
new object=linecode.mtx603 nphases=2 basefreq=60 rmatrix=[1.3238|0.2066,1.3294] xmatrix=[1.3569|0.4591,1.3471] units=mi
new object=linecode.mtx604 nphases=2 basefreq=60 rmatrix=[1.3238|0.2066,1.3294] xmatrix=[1.3569|0.4591,1.3471] units=mi
new object=linecode.mtx605 nphases=1 basefreq=60 rmatrix=[1.3292] xmatrix=[1.3475] units=mi
new object=linecode.mtx606 nphases=3 units=mi rmatrix=[0.791721|0.318476,0.781649|0.28345,0.318476,0.791721] xmatrix=[0.438352|0.0276838,0.396697|-0.0184204,0.0276838,0.438352] cmatrix=[383.948|0,383.948|0,0,383.948]
new object=linecode.mtx607 nphases=1 basefreq=60 rmatrix=[1.3425] xmatrix=[0.5124] cmatrix=[236] units=mi
new object=loadshape.solar_634_shape npts=8760 interval=1 useactual=yes mult=[0.0,0.0,0.0,0.0,0.0,0.0,0.0,0.0,2.3448369255641053,7.109899448937103,10.03635063516657,30.84019741689854,7.07220511281471,16.526941487315916,24.72468078533896,26.619366341507533,13.300181705863414,0.8816113324493713,0.0,0.0,0.0,0.0,0.0,0.0,0.0,0.0,0.0,0.0,0.0,0.0,0.0,0.0,6.152899444242944,15.626327225085834,21.87330674791525,0.8629199261076885,46.95437034750229,16.78955574641656,60.9676292053009,41.92700508846767,22.13592100701589,1.8946855561685785,0.0,0.0,0.0,0.0,0.0,0.0,0.0,0.0,0.0,0.0,0.0,0.0,0.0,0.0,18.04655282289473,42.0771593860792,55.90256961014391,23.692915155278072,42.133233605104245,42.02077364361512,34.329571457451685,29.80843178683765,15.645330154866548,1.2379941466974564,0.0,0.0,0.0,0.0,0.0,0.0,0.0,0.0,0.0,0.0,0.0,0.0,0.0,0.0,27.463594861273545,62.91870050393356,89.3315268053655,105.82108547999806,112.10544781551084,109.141613816598,96.00996629124876,73.59273961879055,40.10739668110487,7.878739296458321,0.0,0.0,0.0,0.0,0.0,0.0,0.0,0.0,0.0,0.0,0.0,0.0,0.0,0.0,29.864817529301725,66.63299446746495,93.7588979208321,110.19175932956152,116.19481599963198,112.08675640916915,98.01711180890646,74.71827380399888,40.48247090169463,7.691202186163437,0.0,0.0,0.0,0.0,0.0,0.0,0.0,0.0,0.0,0.0,0.0,0.0,0.0,0.0,23.599146600130627,55.88387820380222,87.60568695315011,78.507333392897,88.74991254470012,91.5452123630988,91.90159517734688,69.72829135764763,37.743556825760045,7.053513706473026,0.0,0.0,0.0,0.0,0.0,0.0,0.0,0.0,0.0,0.0,0.0,0.0,0.0,0.0,23.95552941437871,23.78668371042551,84.99823576848536,97.49188329070518,87.30568988136612,83.59139591783472,70.45974839248548,36.017716973544665,19.02193271049154,2.026148447438413,0.0,0.0,0.0,0.0,0.0,0.0,0.0,0.0,0.0,0.0,0.0,0.0,0.0,0.0,24.38698937743256,56.85956961483805,15.007330151737108,19.772392675110105,44.2531506076901,51.26896997804073,42.00208223727344,27.219672008514586,14.444718820852454,1.6694541097513005,0.0,0.0,0.0,0.0,0.0,0.0,0.0,0.0,0.0,0.0,0.0,0.0,0.0,0.0,25.06237219324536,57.53464090721182,30.84019741689854,65.60122883740407,51.38174146296889,23.99322375050111,30.765120268092783,25.73775500905817,13.337876041985806,6.303053741854463,0.0,0.0,0.0,0.0,0.0,0.0,0.0,0.0,0.0,0.0,0.0,0.0,0.0,0.0,11.612036189770429,28.701589007971,46.241604719006126,79.25810488095459,45.99768186624716,60.06701494307082,61.00501201798427,49.22444164769967,27.463594861273545,4.821136742398046,0.0,0.0,0.0,0.0,0.0,0.0,0.0,0.0,0.0,0.0,0.0,0.0,0.0,0.0,30.23989174989149,66.93299153924896,93.68382077202634,109.7979937026301,115.72597322389478,112.1051362920718,99.01149462628398,77.08180213590467,45.75375901348821,11.274344781864029,0.0,0.0,0.0,0.0,0.0,0.0,0.0,0.0,0.0,0.0,0.0,0.0,0.0,0.0,27.93243763701075,63.443929022134846,89.0315297335815,107.9596938889256,114.56274470256406,112.01136773692436,99.25541747904296,75.14973376705271,44.68461057074395,11.105499077910826,0.0,0.0,0.0,0.0,0.0,0.0,0.0,0.0,0.0,0.0,0.0,0.0,0.0,0.0,27.332131970003704,62.731163393638674,88.337455511427,81.49048184502958,90.45706099057384,82.25932169255078,74.23042809848096,59.22309794674385,35.1361056410953,8.498047893246078,0.0,0.0,0.0,0.0,0.0,0.0,0.0,0.0,0.0,0.0,0.0,0.0,0.0,0.0,11.386804743353151,26.975749155755626,48.88675023979327,62.31839483692652,71.39774546739893,65.5261516885983,38.756631049479246,31.552963045394712,17.802629970135765,2.907759779887785,0.0,0.0,0.0,0.0,0.0,0.0,0.0,0.0,0.0,0.0,0.0,0.0,0.0,0.0,6.003056670070454,16.114172930603758,74.84942517182968,93.30843502799756,107.77184525519168,106.909236852523,95.50342917938916,74.56811950638736,43.46530783038818,10.9930391164217,0.0,0.0,0.0,0.0,0.0,0.0,0.0,0.0,0.0,0.0,0.0,0.0,0.0,0.0,24.856143676608795,57.75987235362911,81.47147891524887,68.90306576766234,80.98363320973093,105.44569973596924,63.72523468757718,29.11435756468316,16.30171004089864,2.945142592571151,0.0,0.0,0.0,0.0,0.0,0.0,0.0,0.0,0.0,0.0,0.0,0.0,0.0,0.0,25.70006067293577,61.81185772506692,90.23182954415655,109.9668394065833,114.14997614585192,111.22352495962242,98.76757177352503,77.71949061559506,45.50983616072924,11.855959042529388,0.0,0.0,0.0,0.0,0.0,0.0,0.0,0.0,0.0,0.0,0.0,0.0,0.0,0.0,28.063900528280584,63.21869757571757,91.47013521429304,108.33476810951534,115.08797322076536,112.19921637065826,100.69964014237698,78.84533632424242,46.31668186781188,12.23103326311916,0.0,0.0,0.0,0.0,0.0,0.0,0.0,0.0,0.0,0.0,0.0,0.0,0.0,0.0,29.60220327020108,66.37038020836431,93.08351510501927,108.99145951898647,119.4025728513038,116.34497029724352,103.4011714056282,79.08894765356236,48.661518793376,13.337876041985806,0.0,0.0,0.0,0.0,0.0,0.0,0.0,0.0,0.0,0.0,0.0,0.0,0.0,0.0,29.057971822219084,64.81338606010213,90.62590669452702,106.12108255178204,111.91791070521592,108.55968803249364,96.779117662209,76.31265076494441,46.241604719006126,12.437261779755724,0.0,0.0,0.0,0.0,0.0,0.0,0.0,0.0,0.0,0.0,0.0,0.0,0.0,0.0,7.484973669526871,18.740627045049216,28.382900529845305,16.207941485751196,46.99175316018566,12.531341858342191,13.075261782885164,0.1875371102948839,0.0,0.0,0.0,0.0,0.0,0.0,0.0,0.0,0.0,0.0,0.0,0.0,0.0,0.0,0.0,0.0,6.903359408861508,20.27861826353068,57.30940946079456,61.21124053462084,115.5571275199416,113.06213629676596,53.42626979330995,46.35406468049525,26.957057749413934,5.984053740289744,0.0,0.0,0.0,0.0,0.0,0.0,0.0,0.0,0.0,0.0,0.0,0.0,0.0,0.0,7.803973671091589,20.241235450847316,23.52406945132487,58.54771513093104,123.52963537154736,121.44741270508388,108.39115385197944,85.56084709937004,51.625352792288815,14.632255931147338,0.0,0.0,0.0,0.0,0.0,0.0,0.0,0.0,0.0,0.0,0.0,0.0,0.0,0.0,30.952657378387663,68.15229427960473,94.97788913774885,111.05499077910828,117.75181014789418,114.90043611047048,102.91332570011026,81.58393887673799,51.10012427408753,14.969947339053745,0.0,0.0,0.0,0.0,0.0,0.0,0.0,0.0,0.0,0.0,0.0,0.0,0.0,0.0,29.48943178527293,65.13207453822783,90.60721528818534,106.1961597005878,112.59298199758972,109.51668803718776,98.33611181047118,78.46995058021363,49.05559594374647,14.463410227194135,0.0,0.0,0.0,0.0,0.0,0.0,0.0,0.0,0.0,0.0,0.0,0.0,0.0,0.0,19.56585263503451,44.85345627469715,51.70042994109459,76.74411072799826,85.91754143705714,82.33439884135655,74.96219665675783,55.13341823918364,33.766648603128004,9.642273484796092,0.0,0.0,0.0,0.0,0.0,0.0,0.0,0.0,0.0,0.0,0.0,0.0,0.0,0.0,23.261455192224226,54.34557546188172,52.65711842234971,97.81088329226988,103.1946313655526,74.86811657817137,10.392733449414656,72.78620543514693,42.99615353121194,12.099570371849325,0.0,0.0,0.0,0.0,0.0,0.0,0.0,0.0,0.0,0.0,0.0,0.0,0.0,0.0,6.584359407296788,10.598961966051224,15.983021562772947,24.70598937899728,19.509778416009464,13.54410455862237,13.731641668917256,5.327673854257649,2.738914075934584,0.0563857424640764,0.0,0.0,0.0,0.0,0.0,0.0,0.0,0.0,0.0,0.0,0.0,0.0,0.0,0.0,30.99035171451006,67.53329720625601,94.02151217993274,110.39829936963712,117.07642733208137,114.4689761474166,103.5700171095814,83.2347015801476,51.231587165357375,16.22663289209288,0.0,0.0,0.0,0.0,0.0,0.0,0.0,0.0,0.0,0.0,0.0,0.0,0.0,0.0,29.43335756624788,65.07600031920278,91.05736665758089,106.66531399976404,113.19328766459677,110.86714214537434,99.83672021626928,64.08161750182526,42.63977071696385,16.114172930603758,0.0,0.0,0.0,0.0,0.0,0.0,0.0,0.0,0.0,0.0,0.0,0.0,0.0,0.0,9.192122115400563,28.1950518961114,48.00482738390487,48.58644164457023,62.50593194722139,59.03556083644896,53.29511842547915,38.34386249276709,23.52406945132487,6.75320511124999,0.0,0.0,0.0,0.0,0.0,0.0,0.0,0.0,0.0,0.0,0.0,0.0,0.0,0.0,30.97166030816837,68.07721713079897,96.47880906698596,113.0244419606436,120.00287851831084,117.92065585184736,105.9148540351455,85.37330998907514,53.16365553420932,17.746244227671692,0.0,0.0,0.0,0.0,0.0,0.0,0.0,0.0,0.0,0.0,0.0,0.0,0.0,0.0,31.0841202696575,66.27661165321686,91.93928951346926,107.73446244250832,114.16897907563262,112.40544488729483,101.78779151490194,82.39078458382062,53.14496412786763,18.083935635578094,0.0,0.0,0.0,0.0,0.0,0.0,0.0,0.0,0.0,0.0,0.0,0.0,0.0,0.0,30.858888823240225,26.769520639119055,62.78723761266372,78.0197992108181,89.03121821014247,87.21192132621866,75.13104236071104,21.51692393366716,15.551561599719104,10.26127055814482,0.0,0.0,0.0,0.0,0.0,0.0,0.0,0.0,0.0,0.0,0.0,0.0,0.0,0.0,0.0,23.84306945288959,64.28784601846182,90.15706391878982,117.47050448245184,117.3767359273044,107.5466138087744,87.4555326555386,55.18980398164773,19.41569833742299,0.0,0.0,0.0,0.0,0.0,0.0,0.0,0.0,0.0,0.0,0.0,0.0,0.0,0.0,22.286075304627413,59.42932646338041,88.90006684231166,118.74619296527167,100.34325732812889,112.7995220376653,110.73599077754352,86.01130999220457,33.24142008492672,16.170558673067834,0.0,0.0,0.0,0.0,0.0,0.0,0.0,0.0,0.0,0.0,0.0,0.0,0.0,0.0,16.395478596046082,21.76084678642612,16.395478596046082,24.70598937899728,16.358095783362717,68.30244857721625,62.20562335199836,45.15345334648115,15.682712967549913,2.157299815269221,0.0,0.0,0.0,0.0,0.0,0.0,0.0,0.0,0.0,0.0,0.0,0.0,0.0,0.0,1.2193027403557737,7.878739296458321,12.3248018182666,44.10299631007858,53.08857838540355,24.72468078533896,35.8114884569081,15.607635818744154,9.473427780842892,17.840012782819134,0.0,0.0,0.0,0.0,0.0,0.0,0.0,0.0,0.0,0.0,0.0,0.0,0.0,0.0,7.766279334969196,7.391205114379428,28.664206195287637,56.146492462902856,51.49420142445802,64.41930890973165,70.4033626500214,84.90446721333794,54.88949538642469,19.697315526304347,0.0,0.0,0.0,0.0,0.0,0.0,0.0,0.0,0.0,0.0,0.0,0.0,0.0,0.0,6.227976593048703,15.814175858819748,29.5835118638594,110.17306792321986,41.34539082780232,41.12015938138504,46.673064682059966,35.11741423475361,0.8629199261076885,18.309167081995373,0.0,0.0,0.0,0.0,0.0,0.0,0.0,0.0,0.0,0.0,0.0,0.0,0.0,0.0,9.961273486360811,44.27184201403178,95.69096628968404,114.22505329465766,120.5844927789762,120.00287851831084,109.04753373801152,88.76891547448086,57.45956375840608,21.667078231278687,0.0,0.0,0.0,0.0,0.0,0.0,0.0,0.0,0.0,0.0,0.0,0.0,0.0,3.170374038988428,36.52425408540427,72.89866539663605,99.87441455239168,115.68827888777238,122.3103326311916,119.7592671889909,108.87868803405831,88.9938353974591,59.42932646338041,22.773609486706302,0.0,0.0,0.0,0.0,0.0,0.0,0.0,0.0,0.0,0.0,0.0,0.0,0.0,3.226448258013476,35.21118278990105,70.25351987584891,95.5971977345366,111.05499077910828,117.6767329990884,115.894818927848,108.99145951898647,86.36769280645267,57.34710379691696,22.07953526455182,0.0,0.0,0.0,0.0,0.0,0.0,0.0,0.0,0.0,0.0,0.0,0.0,0.0,4.070676777779482,37.01209979092219,72.91735680297774,101.5064858494596,113.79359333160382,120.02188144809152,100.8311030336468,95.61588914087828,73.2924310235675,57.87233231511823,12.4936475222198,0.0,0.0,0.0,0.0,0.0,0.0,0.0,0.0,0.0,0.0,0.0,0.0,0.0,0.0750771488057591,20.56023545241203,47.06714183243044,66.52022298253681,75.73134802771808,89.38791254782957,94.60281491715908,62.91870050393356,55.33995827925925,39.22547382521646,13.300181705863414,0.0,0.0,0.0,0.0,0.0,0.0,0.0,0.0,0.0,0.0,0.0,0.0,0.0,0.9003027387910542,33.128960123437594,66.42645442738936,93.08351510501927,109.32883940345388,116.08235603814286,114.3001304434634,104.22639699561348,84.24777580386682,53.91411549882788,20.84154111785436,0.0,0.0,0.0,0.0,0.0,0.0,0.0,0.0,0.0,0.0,0.0,0.0,0.0,0.0,4.933596703887171,6.99712796400895,22.192306749479968,31.046425933535104,33.10995719365688,40.08839375132415,25.531214968982567,22.154612413357576,23.580455193788943,8.76066215234672,0.0,0.0,0.0,0.0,0.0,0.0,0.0,0.0,0.0,0.0,0.0,0.0,0.0,0.0,0.543919924542969,24.199452267137676,43.05253927367601,55.733723906190704,84.28547013998921,96.30996336303278,75.35596228368928,93.21466647285008,35.17348845377867,12.043496152824272,0.0,0.0,0.0,0.0,0.0,0.0,0.0,0.0,0.0,0.0,0.0,0.0,0.0,3.9582168162903577,12.287419005583232,26.488214973676733,46.69175608840165,64.62553742636823,124.99286096466209,120.67826133412365,109.94814800024162,90.3632924354264,60.9676292053009,24.59352941750815,0.0,0.0,0.0,0.0,0.0,0.0,0.0,0.0,0.0,0.0,0.0,0.0,0.0,5.065059595157007,37.57471112180685,72.67343395021878,97.82957469861158,113.19328766459677,118.65211288668525,116.30758748456016,106.36500540454102,87.38076703017187,59.03524931300993,23.936838008037025,0.0,0.0,0.0,0.0,0.0,0.0,0.0,0.0,0.0,0.0,0.0,0.0,0.0,4.61490822576148,14.294564523240938,59.80440068397018,72.2793567998483,111.78644781394613,117.65804159274671,115.57581892628328,105.52077688477502,86.61161565921164,58.60378934995609,22.754918080364614,0.0,0.0,0.0,0.0,0.0,0.0,0.0,0.0,0.0,0.0,0.0,0.0,0.0,2.0448398537800965,7.597433631015996,37.38717401151196,35.17348845377867,48.56775023822855,66.67037728014832,54.3642668682234,69.35290561361883,34.17941715984016,10.6553477085153,0.0186914063416827,0.0,0.0,0.0,0.0,0.0,0.0,0.0,0.0,0.0,0.0,0.0,0.0,0.0,0.0,0.9753798875968132,0.4878457055179207,5.8715937788006185,38.08124823366644,26.431829231212653,60.98632061164259,66.16384016828871,43.80299923829458,4.802445336056363,22.510995227605655,0.0,0.0,0.0,0.0,0.0,0.0,0.0,0.0,0.0,0.0,0.0,0.0,0.0,6.772208041030701,42.43354220032728,80.32725332369886,107.60299955123848,124.59909533773065,130.80838052443767,123.71717248184224,113.04344489042428,93.08351510501927,63.89408039153038,27.013443491878014,0.0,0.0,0.0,0.0,0.0,0.0,0.0,0.0,0.0,0.0,0.0,0.0,0.0,7.165973667962152,41.60800508690296,76.50018787523929,101.41271729431216,116.5325074075384,122.57294689029222,120.02188144809152,109.49768510740708,90.41967817789046,61.88693487387266,26.056755010622886,0.0,0.0,0.0,0.0,0.0,0.0,0.0,0.0,0.0,0.0,0.0,0.0,0.0,4.76475099993397,37.66847967695429,59.091635055474015,81.62163321286037,99.01118310284495,99.06788036874806,99.1052631814314,59.41063505703873,41.62669649324464,57.06579813147462,25.00598645078129,0.0,0.0,0.0,0.0,0.0,0.0,0.0,0.0,0.0,0.0,0.0,0.0,0.0,2.720222669592901,23.16768663707678,52.05681275534266,62.14954913297332,75.73103650427905,73.91142809691624,91.2075209551924,67.79591146535665,34.23580290230424,10.711421927540346,10.617653372392905,0.0,0.0,0.0,0.0,0.0,0.0,0.0,0.0,0.0,0.0,0.0,0.0,0.0,5.81551955977557,28.514051897676115,38.41893964157285,63.6501575387714,88.39384125389108,87.17422699009629,80.2144818387707,69.44667416876626,67.15822298566624,38.98186249589653,9.041967817789049,0.0,0.0,0.0,0.0,0.0,0.0,0.0,0.0,0.0,0.0,0.0,0.0,0.0,3.095296890182669,17.164629967006327,45.2472219016286,46.69175608840165,58.43525516944192,71.1164398019566,82.5783216941155,72.89866539663605,64.56946320734319,46.82321897967149,14.538487375999896,0.0,0.0,0.0,0.0,0.0,0.0,0.0,0.0,0.0,0.0,0.0,0.0,0.0,8.366585001976242,42.283387902715766,75.8248050594265,99.83672021626928,113.38113629833067,122.72310118790374,119.12126718586148,107.17153958818464,86.42407854891674,56.54056961327334,24.55583508138576,0.0,0.0,0.0,0.0,0.0,0.0,0.0,0.0,0.0,0.0,0.0,0.0,0.0,9.154427779278173,45.30360764409267,81.71540176800782,107.99707670160896,124.07386681952934,130.26414907645565,127.713083634255,104.7329341074731,96.16012058886028,61.04270635410666,29.301894674978044,0.0,0.0,0.0,0.0,0.0,0.0,0.0,0.0,0.0,0.0,0.0,0.0,0.0,8.910504926519211,41.42046797660808,70.68497983890275,108.18461381190384,122.57294689029222,127.78816078306076,124.1299410385544,110.71729937120186,86.1237699536937,57.34710379691696,24.6496036365332,0.0,0.0,0.0,0.0,0.0,0.0,0.0,0.0,0.0,0.0,0.0,0.0,0.0,9.473427780842892,4.239522481732684,82.82224454687449,36.28033123264531,44.421996311643305,61.26762627708491,131.0523033771966,116.94527596425056,96.47880906698596,64.79438313032144,29.18943471348892,0.0,0.0,0.0,0.0,0.0,0.0,0.0,0.0,0.0,0.0,0.0,0.0,0.0,10.486502004562096,46.654373275718285,81.07740176487839,105.12701125784358,119.7592671889909,125.53678088920503,123.49225255886398,112.25529058968333,93.55235788075647,64.96322883427463,29.301894674978044,0.0,0.0,0.0,0.0,0.0,0.0,0.0,0.0,0.0,0.0,0.0,0.0,0.0,11.12419048425251,49.31821020284711,85.26085002758602,111.54252496118715,127.26293226485944,133.30337174761328,130.24545767011398,118.80226718429674,95.37196628811932,66.76414583529576,30.577583157797896,1.556994148262176,0.0,0.0,0.0,0.0,0.0,0.0,0.0,0.0,0.0,0.0,0.0,0.0,11.255653375522344,48.11759886883302,83.60977580073737,108.16592240556216,122.29164122484988,123.06079259581014,120.52841855995116,109.49768510740708,89.63183540058854,62.56200616624645,28.176360489769717,1.0691484427442552,0.0,0.0,0.0,0.0,0.0,0.0,0.0,0.0,0.0,0.0,0.0,0.0,11.06811626522746,43.25876779031258,81.9219418080834,106.94661966520638,121.10972129717749,125.91216663323384,124.22370959370184,107.64069388736088,88.60006977052764,61.324012019549,27.500977673956903,0.9566884812551304,0.0,0.0,0.0,0.0,0.0,0.0,0.0,0.0,0.0,0.0,0.0,0.0,11.612036189770429,47.51729320182598,81.49017032159055,106.4213911470051,120.97856992934668,127.39408363269028,125.21809241107935,114.3001304434634,95.1283549587994,64.26915461212013,29.301894674978044,1.6884570395320115,0.0,0.0,0.0,0.0,0.0,0.0,0.0,0.0,0.0,0.0,0.0,0.0,10.561579153367855,40.83885371594271,81.47147891524887,94.79035202745396,119.66518711040445,124.24271252348254,121.27856700113068,110.2481450720256,90.2134496612539,46.20391038288373,28.1950518961114,1.4258427804313685,0.0,0.0,0.0,0.0,0.0,0.0,0.0,0.0,0.0,0.0,0.0,0.0,11.818264706406996,46.222913312664446,62.63739483849124,72.50458824626557,77.02541639344058,112.85559625669036,121.97264122328518,75.26219372854185,89.0315297335815,60.40470635097722,27.8763634179857,1.2756884828198498,0.0,0.0,0.0,0.0,0.0,0.0,0.0,0.0,0.0,0.0,0.0,0.0,10.073733447849936,36.149179864814506,69.70928842786691,103.68247707107052,118.8773443331025,94.77166062111228,103.62609132860642,89.55675825178278,81.3964017664431,59.091635055474015,28.270129044917155,1.5946884843845697,0.0,0.0,0.0,0.0,0.0,0.0,0.0,0.0,0.0,0.0,0.0,0.0,8.81673637137177,31.47819742002798,31.571965975175416,17.95247274430826,48.34251879181127,65.56353450128168,121.91656700426012,110.97991363030252,92.18290084278922,64.32554035458422,28.926820454388277,2.082222666463462,0.0,0.0,0.0,0.0,0.0,0.0,0.0,0.0,0.0,0.0,0.0,0.0,13.637873113769814,49.50574731314199,82.63470743657959,80.12071328362325,120.60318418531789,125.03055530078446,123.13586974461587,112.72444488885957,93.87135788232122,65.8825345028464,30.108740382060684,2.457608410492258,0.0,0.0,0.0,0.0,0.0,0.0,0.0,0.0,0.0,0.0,0.0,0.0,14.23817878077686,49.39328735165287,80.98363320973093,103.21332277189428,119.7215728528685,125.33055237256848,121.99164415306588,96.87288621735644,92.6894379546488,63.1813147630342,30.033663233254927,2.438605480711547,0.0,0.0,0.0,0.0,0.0,0.0,0.0,0.0,0.0,0.0,0.0,0.0,14.050641670481976,48.47398168308111,70.87251694919765,76.76280213433994,98.42988036561864,109.72291655382432,98.09218895771222,95.39096921790004,81.3964017664431,39.99462519617671,19.17208700810306,0.9566884812551304,0.0,0.0,0.0,0.0,0.0,0.0,0.0,0.0,0.0,0.0,0.0,0.0,1.9510712986326544,8.141665078997994,12.868721742809567,24.255838009601742,13.000184634079403,8.629199261076884,29.60220327020108,41.00769941989592,3.113988296524352,23.20506944976015,11.011730522763385,0.0186914063416827,0.0,0.0,0.0,0.0,0.0,0.0,0.0,0.0,0.0,0.0,0.0,0.0,7.766279334969196,24.162069454454308,38.66286249433181,36.22425701362027,54.21442409405091,44.10299631007858,41.47685371907215,45.284916237751,43.63415353434138,13.469027409816611,6.227976593048703,0.0,0.0,0.0,0.0,0.0,0.0,0.0,0.0,0.0,0.0,0.0,0.0,0.0,2.30745411288074,9.7734248526269,36.4868712727209,52.84496705608362,89.20037543753469,122.42310411611972,98.86134032867248,96.08473191661548,89.85675532356679,39.22547382521646,18.834395600196657,1.1255341852083316,0.0,0.0,0.0,0.0,0.0,0.0,0.0,0.0,0.0,0.0,0.0,0.0,16.677095784927438,18.102627041919774,55.60257253835988,88.20599262015716,125.33055237256848,130.47068911653125,129.10123207856395,119.19634433466724,99.66787451231608,36.580639827868346,18.45900985616786,1.5196113355788103,0.0,0.0,0.0,0.0,0.0,0.0,0.0,0.0,0.0,0.0,0.0,0.0,19.88485263659923,60.19847783434066,95.35327488177762,120.39695566868131,134.20367448640434,138.91203974387423,136.52982000562673,123.77355822430631,102.61301710488723,72.14820543201749,33.766648603128004,3.676911150848032,0.0,0.0,0.0,0.0,0.0,0.0,0.0,0.0,0.0,0.0,0.0,0.0,19.64092978384027,58.04117801907143,90.6632895072104,112.93067340549614,125.27447815354344,128.7071549281935,127.75046644693836,115.16305036957112,94.99689206752956,66.98937728171305,32.54734586277223,3.5080654468948302,0.0,0.0,0.0,0.0,0.0,0.0,0.0,0.0,0.0,0.0,0.0,0.0,19.397006931081307,56.4091067220035,87.77453265710334,113.94374762921532,127.33800941366522,70.38467124367972,130.43299478040885,118.3521158149012,98.88003173501416,67.98344857565155,33.31649723373248,4.183448262707636,0.0,0.0,0.0,0.0,0.0,0.0,0.0,0.0,0.0,0.0,0.0,0.0,19.115701265638982,55.41472390462599,87.21160980277965,109.74160796016602,58.9604836876432,100.38064014081225,102.21925147795578,76.89426502560977,49.11167016277152,38.21271112493629,18.853087006538345,1.7822255946794534,0.0,0.0,0.0,0.0,0.0,0.0,0.0,0.0,0.0,0.0,0.0,0.0,2.119917002585856,4.689673851128211,5.140136743962765,17.408552819765287,38.70055683045421,53.06988697906188,68.26506576453289,53.8577297563638,53.29511842547915,25.26860070988193,12.681184632514686,0.8065341836436121,0.0,0.0,0.0,0.0,0.0,0.0,0.0,0.0,0.0,0.0,0.0,0.0,0.8255371134243229,3.545448259578196,13.28149029952173,20.616309671437083,21.34807822971397,22.811303822828695,15.682712967549913,17.708861414988323,15.251253004496068,8.329202189292877,3.845756854801233,0.0,0.0,0.0,0.0,0.0,0.0,0.0,0.0,0.0,0.0,0.0,0.0,0.0,0.356382814248085,0.3376914079064023,5.946670927606378,10.01734770538586,17.7652471574524,12.756261781320443,15.232561598154383,9.154427779278173,18.68424130258514,15.476484450913343,7.484973669526871,0.1875371102948839,0.0,0.0,0.0,0.0,0.0,0.0,0.0,0.0,0.0,0.0,0.0,0.0,20.31631259965307,55.43372683440668,85.35461858273345,106.32762259185763,66.76445735873479,57.79725516631248,77.45718787993346,60.85516924381178,96.30996336303278,31.721808749347908,32.73488297306712,4.389676779344201,0.0,0.0,0.0,0.0,0.0,0.0,0.0,0.0,0.0,0.0,0.0,0.0,5.646673855822369,27.726209120374183,55.733723906190704,63.89408039153038,55.77141824231308,60.83616631403107,71.51020542888806,61.380397762013054,82.31570743501486,47.12321605145549,24.162069454454308,3.357911149283312,0.0,0.0,0.0,0.0,0.0,0.0,0.0,0.0,0.0,0.0,0.0,0.0,22.510995227605655,58.77263505390929,80.3833275427239,94.2277406965693,110.1169937041948,115.23812751837688,110.64222222239611,100.68094873603528,82.18424454374504,48.39890453427535,24.6496036365332,3.6018340020422723,0.0,0.0,0.0,0.0,0.0,0.0,0.0,0.0,0.0,0.0,0.0,0.0,21.77953819276781,50.4811272007388,63.74423761735788,71.71643394552461,75.22481091585847,83.66616154320145,101.09371729274746,85.88015862437378,49.59951586828944,27.388517712467785,13.600490301086449,1.444534186773051,0.0,0.0,0.0,0.0,0.0,0.0,0.0,0.0,0.0,0.0,0.0,0.0,10.749116263662742,26.150523565770328,41.38308516392471,111.1110649981333,122.79817833670948,128.2009293397729,124.69255236943904,114.45028474107494,95.2595063266302,65.63861165008743,15.701404373891592,4.61490822576148,0.0,0.0,0.0,0.0,0.0,0.0,0.0,0.0,0.0,0.0,0.0,0.0,22.604763782753103,56.44648953468687,52.31973853788234,72.9924339517835,93.66481784224564,122.6106412264146,118.69011874624664,108.22230814802624,90.40098677154876,64.28784601846182,18.721624115268504,2.682528333470508,0.0,0.0,0.0,0.0,0.0,0.0,0.0,0.0,0.0,0.0,0.0,0.0,3.845756854801233,19.528469822351145,34.1043400110344,37.162254088533714,54.7396526122522,78.97648769207323,86.55522991674756,84.02285588088857,95.2595063266302,44.81576193857476,14.575870188683265,1.913376962510261,0.0,0.0,0.0,0.0,0.0,0.0,0.0,0.0,0.0,0.0,0.0,0.0,25.30629504600432,63.38754327967077,95.48473777304748,117.80819589035823,130.71461196929022,135.70459441564145,132.14014322628253,120.39695566868131,100.66225732969362,71.71674546896365,35.69902849541898,5.327673854257649,0.0,0.0,0.0,0.0,0.0,0.0,0.0,0.0,0.0,0.0,0.0,0.2626142591006431,25.85021497054729,61.64301202111371,92.61436080584303,111.14875933425571,124.05486388974865,128.857620749244,130.13299770862486,114.3565161859275,95.24081492028851,67.90868295028481,34.59218571655233,5.515210964552534,0.0,0.0,0.0,0.0,0.0,0.0,0.0,0.0,0.0,0.0,0.0,0.9566884812551304,27.069517710903064,63.51900617094061,93.9277436247853,115.14435896322942,126.75639515299984,130.30184341257805,127.1878551160537,116.60758455634416,98.1295717703956,70.32859702465467,36.130488458472826,5.8715937788006185,0.0,0.0,0.0,0.0,0.0,0.0,0.0,0.0,0.0,0.0,0.0,0.6940742221544874,23.355223747371667,45.0783761976754,68.03983431811561,76.50018787523929,95.16573777148275,81.73409317434951,107.2843110731128,58.22871512936632,60.87386065015346,66.48284016985343,32.584728675455594,5.308982447915968,0.0,0.0,0.0,0.0,0.0,0.0,0.0,0.0,0.0,0.0,0.0,0.0,21.610692488814607,33.35388004641584,31.02773452719342,34.29187712132929,54.458035423370845,71.02267124680915,42.320770715399135,39.67593671805102,40.76377656713696,25.30629504600432,7.6725107798217556,3.1326797028660343,0.0,0.0,0.0,0.0,0.0,0.0,0.0,0.0,0.0,0.0,0.0,0.0,8.66689359719928,25.90660071301137,24.55583508138576,117.13281307454544,133.2282945988075,139.06250556492475,131.98998892867104,121.20348985232492,101.61894581094872,72.65474254387709,35.923948418397224,5.890285185142302,0.0,0.0,0.0,0.0,0.0,0.0,0.0,0.0,0.0,0.0,0.0,2.119917002585856,29.88350893564341,68.86505990810092,102.96971144257434,126.09970374352874,139.73788838073756,143.99610226881197,139.38119404305047,126.324935189946,102.48186573705644,54.1954211642702,29.63958608288445,6.340748077976856,0.0,0.0,0.0,0.0,0.0,0.0,0.0,0.0,0.0,0.0,0.0,2.2136855577332977,29.977277490790847,67.68345150386752,99.44295458933782,120.94087559322428,133.5659860067139,137.61765985471268,133.43452311544408,121.52248985388964,101.31863721572569,70.5722083539746,36.65571697667411,6.509593781930057,0.0,0.0,0.0,0.0,0.0,0.0,0.0,0.0,0.0,0.0,0.0,2.607451184664748,30.821506010556856,68.02114291177392,97.66072899465838,117.86458163282232,129.25138637617547,132.7027545571672,128.53862074767932,117.35804452096274,98.76757177352503,70.96628550434508,36.71179119569916,6.340748077976856,0.0,0.0,0.0,0.0,0.0,0.0,0.0,0.0,0.0,0.0,0.0,2.7949882949596323,30.258583156233176,67.00806868805472,97.4354975482411,117.99573300065312,113.54967047884485,134.7852887470697,131.08968618987998,120.00287851831084,100.68094873603528,70.30959409487396,36.4678683429402,6.415513703343588,0.0,0.0,0.0,0.0,0.0,0.0,0.0,0.0,0.0,0.0,0.0,2.963833998912833,29.301894674978044,64.60684602002654,66.2015345044111,59.41063505703873,66.83922298410153,30.052354639596604,93.7588979208321,116.98265877693392,96.49781199676669,68.47129428116946,34.385645676476734,6.52828518827174,0.0,0.0,0.0,0.0,0.0,0.0,0.0,0.0,0.0,0.0,0.0,2.870065443765391,28.43897474887036,41.00769941989592,73.27373961722583,113.30605914952493,97.43580907168013,130.32053481891973,126.26854944748194,116.04466170202048,97.9420346601007,70.85382554285596,36.149179864814506,6.622053743419183,0.0,0.0,0.0,0.0,0.0,0.0,0.0,0.0,0.0,0.0,0.0,3.339219742941629,28.94551186072996,62.26200909446244,74.15535094967518,90.1944467314732,39.60085956924526,85.24215862124433,107.82823099765577,90.32590962274304,52.56334986720227,34.1043400110344,15.945327226650557,6.096825225217897,0.0,0.0,0.0,0.0,0.0,0.0,0.0,0.0,0.0,0.0,0.0,2.7949882949596323,4.914905297545488,19.753389745329397,25.70006067293577,31.778194491811988,60.4610920934413,89.61314399424685,53.18265846399002,50.04966723768496,30.221200343549807,25.26860070988193,15.232561598154383,6.622053743419183,0.0,0.0,0.0,0.0,0.0,0.0,0.0,0.0,0.0,0.0,0.0,1.8009170010211362,10.33634770695058,66.37038020836431,70.59121128375531,84.00385295110785,89.1439896950706,84.07893009991362,94.62181784693978,84.51039006296746,79.10795058334307,54.77703542493557,35.304951345048494,7.184665074303834,0.0,0.0,0.0,0.0,0.0,0.0,0.0,0.0,0.0,0.0,0.0,0.1875371102948839,1.7445312585570598,7.090896519156392,10.936653373957624,11.330730524328104,18.083935635578094,22.32345811731078,52.05681275534266,45.86621897497733