clear
set defaultbasefrequency=60
new object=circuit.lehigh basekv=115 pu=1.0001 phases=3 bus1=sourcebus angle=30 mvasc3=20000 mvasc1=21000
edit object=vsource.source basekv=115 bus1=sourcebus.1.2.3 pu=1.00 r1=0 x1=0.0001 r0=0 x0=0.0001
new object=vsource.secondsource basekv=4.16 bus1=680.1.2.3 pu=1.00 r1=0 x1=0.0001 r0=0 x0=0.0001
new object=transformer.sub phases=3 windings=2 xhl=0.008 buses=[sourcebus.1.2.3,650.1.2.3] conns=[delta,wye] kvs=[115,4.16] kvas=[5000,5000] %rs=[0.0005,0.0005]
new object=transformer.reg1 phases=1 bank=reg1 xhl=0.01 kvas=[1666,1666] buses=[650.1,rg60.1] kvs=[2.4,2.4] %loadloss=0.01
new object=regcontrol.reg1 transformer=reg1 winding=2 vreg=121 band=2 ptratio=20 ctprim=700 r=3 x=9
new object=transformer.reg2 phases=1 bank=reg1 xhl=0.01 kvas=[1666,1666] buses=[650.2,rg60.2] kvs=[2.4,2.4] %loadloss=0.01
new object=regcontrol.reg2 transformer=reg2 winding=2 vreg=121 band=2 ptratio=20 ctprim=700 r=3 x=9
new object=transformer.reg3 phases=1 bank=reg1 xhl=0.01 kvas=[1666,1666] buses=[650.3,rg60.3] kvs=[2.4,2.4] %loadloss=0.01
new object=regcontrol.reg3 transformer=reg3 winding=2 vreg=121 band=2 ptratio=20 ctprim=700 r=3 x=9
new object=transformer.xfm1 phases=3 windings=2 xhl=2 buses=[633.1.2.3,634.1.2.3] conns=[wye,wye] kvs=[4.16,0.480] kvas=[500,500] %rs=[0.55,0.55] xht=1 xlt=1
new object=linecode.mtx601 nphases=3 basefreq=60 rmatrix=[0.3465|0.1560,0.3375|0.1580,0.1535,0.3414] xmatrix=[1.0179|0.5017,1.0478|0.4236,0.3849,1.0348] units=mi
new object=linecode.mtx602 nphases=3 basefreq=60 rmatrix=[0.7526|0.1580,0.7475|0.1560,0.1535,0.7436] xmatrix=[1.1814|0.4236,1.1983|0.5017,0.3849,1.2112] units=mi
new object=linecode.mtx603 nphases=2 basefreq=60 rmatrix=[1.3238|0.2066,1.3294] xmatrix=[1.3569|0.4591,1.3471] units=mi
new object=linecode.mtx604 nphases=2 basefreq=60 rmatrix=[1.3238|0.2066,1.3294] xmatrix=[1.3569|0.4591,1.3471] units=mi
new object=linecode.mtx605 nphases=1 basefreq=60 rmatrix=[1.3292] xmatrix=[1.3475] units=mi
new object=linecode.mtx606 nphases=3 units=mi rmatrix=[0.791721|0.318476,0.781649|0.28345,0.318476,0.791721] xmatrix=[0.438352|0.0276838,0.396697|-0.0184204,0.0276838,0.438352] cmatrix=[383.948|0,383.948|0,0,383.948]
new object=linecode.mtx607 nphases=1 basefreq=60 rmatrix=[1.3425] xmatrix=[0.5124] cmatrix=[236] units=mi
new object=loadshape.solar_634_shape npts=8760 interval=1 useactual=yes mult=[0.0,0.0,0.0,0.0,0.0,0.0,0.0,0.0,2.4533563278850763,7.4381420045661875,10.49969680399218,32.26439878979507,7.398944850034759,17.290121894334124,25.866587821071192,27.848614430123448,13.914668570504816,0.9224182840961308,0.0,0.0,0.0,0.0,0.0,0.0,0.0,0.0,0.0,0.0,0.0,0.0,0.0,0.0,6.437329411407203,16.34810503297228,22.88342733070805,0.902819706830417,49.1230306961316,17.564823264206016,63.783409067189226,43.8632223614267,23.158128700579937,1.982347897204154,0.0,0.0,0.0,0.0,0.0,0.0,0.0,0.0,0.0,0.0,0.0,0.0,0.0,0.0,18.87985566992021,44.02033226770431,58.4844035779529,24.787059630697456,44.079127999501445,43.96153653590717,35.914874771648165,31.18519188757323,16.367703610237996,1.2954338284484843,0.0,0.0,0.0,0.0,0.0,0.0,0.0,0.0,0.0,0.0,0.0,0.0,0.0,0.0,28.731835559688157,65.82455269619052,93.4572614882392,110.70818622804192,117.28270568030912,114.1816324381998,100.4439936393902,76.99124370352077,41.9595900614373,8.242647536916138,0.0,0.0,0.0,0.0,0.0,0.0,0.0,0.0,0.0,0.0,0.0,0.0,0.0,0.0,31.24398761937037,69.71021160523217,98.0889514859856,115.28108049399115,121.56097871096884,117.2631071030434,102.54393300018864,78.16876478022306,42.35220418305536,8.046661764259003,0.0,0.0,0.0,0.0,0.0,0.0,0.0,0.0,0.0,0.0,0.0,0.0,0.0,0.0,24.689066744368883,58.46480500068718,91.65162207457836,82.13313928647948,92.8487417285464,95.7731064871124,96.14612203146476,72.9484748882015,39.4866351562865,7.379346272769045,0.0,0.0,0.0,0.0,0.0,0.0,0.0,0.0,0.0,0.0,0.0,0.0,0.0,0.0,25.06208228872124,24.88537380517792,88.92356437682142,101.99420897229297,91.33772355017506,87.45174335298151,73.71378326602,37.68131703077757,19.900266840344912,2.11953793806415,0.0,0.0,0.0,0.0,0.0,0.0,0.0,0.0,0.0,0.0,0.0,0.0,0.0,0.0,25.51317085398455,59.48553745926378,15.700388118748036,20.68549508358105,46.296980112046064,53.63680794213179,43.94161667048955,28.476732767081977,15.111788224472834,1.746522393711796,0.0,0.0,0.0,0.0,0.0,0.0,0.0,0.0,0.0,0.0,0.0,0.0,0.0,0.0,26.21968350000593,60.19172881713328,32.26439878979507,68.63068341485844,53.75472069387797,25.101279443252665,32.186004480732215,26.926517434179218,13.953865725036245,6.594118029532911,0.0,0.0,0.0,0.0,0.0,0.0,0.0,0.0,0.0,0.0,0.0,0.0,0.0,0.0,12.148226311375408,30.02726938813664,48.377320895578784,82.91836752971561,48.12189681482072,62.84139220582738,63.82260622172065,51.49767142680192,28.731835559688157,5.043902696630148,0.0,0.0,0.0,0.0,0.0,0.0,0.0,0.0,0.0,0.0,0.0,0.0,0.0,0.0,31.63660174098844,70.02411012963549,98.01023588877082,114.86886779510736,121.0703717030222,117.28270568030912,103.58394274787904,80.64171968537386,47.86679402221454,11.795130632440667,0.0,0.0,0.0,0.0,0.0,0.0,0.0,0.0,0.0,0.0,0.0,0.0,0.0,0.0,29.222442567634783,66.37395543593429,93.1433629638359,112.94563691785226,119.85365347178848,117.18471279398057,103.83904554048524,78.62017463363827,46.748389965461264,11.618422148897343,0.0,0.0,0.0,0.0,0.0,0.0,0.0,0.0,0.0,0.0,0.0,0.0,0.0,0.0,28.594645518828155,65.62824563538149,92.4169304523969,85.25381110585451,94.63478256494152,86.05831663820445,77.65855919501072,61.95817107626267,36.758898746681446,8.890364451140382,0.0,0.0,0.0,0.0,0.0,0.0,0.0,0.0,0.0,0.0,0.0,0.0,0.0,0.0,11.91272209603495,28.221629974475803,51.144254459715285,65.19643435923199,74.69499728191329,68.55228910579558,40.54656476939453,33.01042987849978,18.62475287731404,3.0419562221602807,0.0,0.0,0.0,0.0,0.0,0.0,0.0,0.0,0.0,0.0,0.0,0.0,0.0,0.0,6.280219505129595,16.858310618184632,78.30627610923496,97.61794305530468,112.7493298570432,111.8465101502128,99.91418947691214,78.01197616209735,45.4725547142785,11.500509397151168,0.0,0.0,0.0,0.0,0.0,0.0,0.0,0.0,0.0,0.0,0.0,0.0,0.0,0.0,26.00409915008309,60.42723303247373,85.2342125285888,72.0851736240544,84.72368565522454,110.31557210642384,66.6682553830719,30.459080664286127,17.054617678993665,3.081153376691708,0.0,0.0,0.0,0.0,0.0,0.0,0.0,0.0,0.0,0.0,0.0,0.0,0.0,0.0,26.88699899149589,64.66630890860202,94.39927834960106,115.0455762786507,119.42184219563896,116.36028739621298,103.32883995527288,81.30903517686382,47.61169122960836,12.403329103981584,0.0,0.0,0.0,0.0,0.0,0.0,0.0,0.0,0.0,0.0,0.0,0.0,0.0,0.0,29.359953896646683,66.13845122059384,95.69439088989763,113.3379297513184,120.40337749968415,117.3810198547896,105.35038500700844,82.48655625356612,48.45571520464164,12.79594322559965,0.0,0.0,0.0,0.0,0.0,0.0,0.0,0.0,0.0,0.0,0.0,0.0,0.0,0.0,30.969286249498484,69.4355102353603,97.3824388399642,114.02484382007408,124.91715474568431,121.71808861724644,108.176435591094,82.7416590461723,50.908750244374815,13.953865725036245,0.0,0.0,0.0,0.0,0.0,0.0,0.0,0.0,0.0,0.0,0.0,0.0,0.0,0.0,30.39996364433709,67.80657930524278,94.81149104848484,111.02208475244522,117.08639861950007,113.57343396665888,101.24849917174014,79.836892864872,48.377320895578784,13.011848863674398,0.0,0.0,0.0,0.0,0.0,0.0,0.0,0.0,0.0,0.0,0.0,0.0,0.0,0.0,7.830756126184255,19.605966893207317,29.69345099831571,16.956624792665096,49.16222785066302,13.109841750002968,13.679164355164351,0.1963070608090337,0.0,0.0,0.0,0.0,0.0,0.0,0.0,0.0,0.0,0.0,0.0,0.0,0.0,0.0,0.0,0.0,7.222236366491439,21.215299246059107,59.95654588994471,64.0385118597954,120.8939845076308,118.2835182734681,55.89385720920783,48.49491235917306,28.20203139721009,6.260620927863882,0.0,0.0,0.0,0.0,0.0,0.0,0.0,0.0,0.0,0.0,0.0,0.0,0.0,0.0,8.164253227853285,21.17610209152768,24.61067243530603,61.2516584302413,129.23462493087547,127.0562912610142,113.39672548311556,89.51248555924852,54.00982348648414,15.30809528528187,0.0,0.0,0.0,0.0,0.0,0.0,0.0,0.0,0.0,0.0,0.0,0.0,0.0,0.0,32.38231154154125,71.29994538081827,99.36446544901646,116.18357891266966,123.18990964108636,120.20707043887514,107.66623000588164,85.35180399218308,53.46009945858847,15.661190964216612,0.0,0.0,0.0,0.0,0.0,0.0,0.0,0.0,0.0,0.0,0.0,0.0,0.0,0.0,30.851373497752306,68.14007640691182,94.79157118306723,111.10080034966,117.79291126552148,114.57424655981788,102.87743010185766,82.09394213194804,51.32096294325861,15.131386801738548,0.0,0.0,0.0,0.0,0.0,0.0,0.0,0.0,0.0,0.0,0.0,0.0,0.0,0.0,20.469589445506298,46.92477716085269,54.088217795547,80.28830271828723,89.88550110360089,86.13703223541921,78.42386757282925,57.67957675745106,35.32627487737296,10.087484105108398,0.0,0.0,0.0,0.0,0.0,0.0,0.0,0.0,0.0,0.0,0.0,0.0,0.0,0.0,24.33564977728225,56.85547264783539,55.08903038870598,102.32802736211389,107.96052995301925,78.32587468650067,10.872712348344535,76.14754101663938,44.981947706331866,12.65843189658776,0.0,0.0,0.0,0.0,0.0,0.0,0.0,0.0,0.0,0.0,0.0,0.0,0.0,0.0,6.888739264822409,11.088617986419283,16.721120577324637,25.846989243805474,20.41079371370916,14.169771363110993,14.366078423920024,5.573706859108212,2.86524773861696,0.058795731797141,0.0,0.0,0.0,0.0,0.0,0.0,0.0,0.0,0.0,0.0,0.0,0.0,0.0,0.0,32.42150869607268,70.65222846659401,98.36365285585748,115.496664843914,122.48371828321686,119.7556605854599,108.3531440746373,87.07904909678105,53.59761078760035,16.97622336993081,0.0,0.0,0.0,0.0,0.0,0.0,0.0,0.0,0.0,0.0,0.0,0.0,0.0,0.0,30.792577765955155,68.08128067511467,95.26290090190004,111.5914073576066,118.42102960248,115.98727185186064,104.44756530017804,67.04127092742424,44.60893216197951,16.858310618184632,0.0,0.0,0.0,0.0,0.0,0.0,0.0,0.0,0.0,0.0,0.0,0.0,0.0,0.0,9.61647567442748,29.497465225658573,50.221836175619146,50.83035593531197,65.39274142004102,61.76186401545364,55.75634588019594,40.11475349324503,24.61067243530603,7.065126460213833,0.0,0.0,0.0,0.0,0.0,0.0,0.0,0.0,0.0,0.0,0.0,0.0,0.0,0.0,32.40191011880696,71.22155107175541,100.93460064733684,118.24432111893668,125.54527308264284,123.36661812462968,110.80617911437048,89.3161784984395,55.61915583933594,18.565957145516897,0.0,0.0,0.0,0.0,0.0,0.0,0.0,0.0,0.0,0.0,0.0,0.0,0.0,0.0,32.51950158240124,69.33719606087983,96.1853191859962,112.7101327025118,119.44144077290468,117.59660420471243,106.48870892917932,86.19582796721635,55.59923597391832,18.91905282445164,0.0,0.0,0.0,0.0,0.0,0.0,0.0,0.0,0.0,0.0,0.0,0.0,0.0,0.0,32.28399736706078,28.00572433640105,65.68704136717862,81.62293370126713,93.1433629638359,91.23940937569462,78.60057605637255,22.510733074507595,16.269710723909427,10.735201019332642,0.0,0.0,0.0,0.0,0.0,0.0,0.0,0.0,0.0,0.0,0.0,0.0,0.0,0.0,0.0,24.944169536975064,67.25717656549901,94.32088404053822,122.89560969394876,122.7976168076202,112.51382564170277,91.49451216830076,57.73869377740009,20.312479539228693,0.0,0.0,0.0,0.0,0.0,0.0,0.0,0.0,0.0,0.0,0.0,0.0,0.0,0.0,23.315238606857545,62.17375542618552,93.005851634824,124.23024067692867,104.97736946265609,118.0088169035962,115.85008181100063,89.98349398992946,34.77655084947728,16.91742763813367,0.0,0.0,0.0,0.0,0.0,0.0,0.0,0.0,0.0,0.0,0.0,0.0,0.0,0.0,17.15293185347413,22.76583586711377,17.15293185347413,25.846989243805474,17.113413410790805,71.45705528709587,65.07852160748581,47.23899697340791,16.406900764769425,2.257049267076043,0.0,0.0,0.0,0.0,0.0,0.0,0.0,0.0,0.0,0.0,0.0,0.0,0.0,0.0,1.275513963030874,8.242647536916138,12.89393611192822,46.13987020576846,55.54044024212119,25.866587821071192,37.46541139270282,16.32850645570657,9.911096909716976,18.663950031845467,0.0,0.0,0.0,0.0,0.0,0.0,0.0,0.0,0.0,0.0,0.0,0.0,0.0,0.0,8.125056073321856,7.732441951703789,29.98807223360521,58.73950637055907,53.87231215747224,67.394366606359,73.65466624607097,88.82557149049285,57.42447396484487,20.606779486366296,0.0,0.0,0.0,0.0,0.0,0.0,0.0,0.0,0.0,0.0,0.0,0.0,0.0,0.0,6.515723720470057,16.544412093781315,30.94968767223277,115.26116062857356,43.25502388988578,43.01951967454532,48.828409460842096,36.73930016941573,0.902819706830417,19.154557039792103,0.0,0.0,0.0,0.0,0.0,0.0,0.0,0.0,0.0,0.0,0.0,0.0,0.0,0.0,10.421302494929328,46.31657868931177,100.11017524956924,119.50055779285374,126.15347155418378,125.54527308264284,114.08363955187122,92.86834030581213,60.113334508070416,22.667521692633308,0.0,0.0,0.0,0.0,0.0,0.0,0.0,0.0,0.0,0.0,0.0,0.0,0.0,3.3166575920321697,38.21112119325564,76.26513248023366,104.48676245470946,121.03117454849075,127.95911096784462,125.2898490018848,113.9072523564798,93.10384452115258,62.17407671433742,23.8254441920699,0.0,0.0,0.0,0.0,0.0,0.0,0.0,0.0,0.0,0.0,0.0,0.0,0.0,3.37545332382931,36.83729305574429,73.49787762794527,100.01218236324073,116.18357891266966,123.11151533202349,121.24708018656553,114.02484382007408,90.3565095342818,59.99542175632424,23.0993329687828,0.0,0.0,0.0,0.0,0.0,0.0,0.0,0.0,0.0,0.0,0.0,0.0,0.0,4.258674453394014,38.72132677846798,76.28473105749937,106.19440898204172,119.04914793943853,125.5648716599086,105.48757504786846,100.0317809405064,76.67734517911744,60.54514578421991,13.070644595471538,0.0,0.0,0.0,0.0,0.0,0.0,0.0,0.0,0.0,0.0,0.0,0.0,0.0,0.0783943090628547,21.50959919319671,49.24062215972587,69.5926201416379,79.22869439333108,93.51605722003634,98.97217261555028,65.82423140803861,57.8954823955258,41.03717177734117,13.914668570504816,0.0,0.0,0.0,0.0,0.0,0.0,0.0,0.0,0.0,0.0,0.0,0.0,0.0,0.9420168613618444,34.658959385883,69.49430596715743,97.3824388399642,114.37826078716074,121.44338724737456,119.57895210191658,109.04005814339298,88.1386574217372,56.40406279442018,21.804220428486207,0.0,0.0,0.0,0.0,0.0,0.0,0.0,0.0,0.0,0.0,0.0,0.0,0.0,0.0,5.161494160224431,7.320229252820008,23.21724572052898,32.48030442786981,34.63936080861729,41.93999148417159,26.71061179610447,23.17772727784565,24.66946816710317,9.165065821012268,0.0,0.0,0.0,0.0,0.0,0.0,0.0,0.0,0.0,0.0,0.0,0.0,0.0,0.0,0.5690013170094905,25.317185081327416,45.040743438129006,58.30769509440958,88.17785457626862,100.75821345194542,78.83608027171302,97.5199501689761,36.79809590121287,12.599636164790615,0.0,0.0,0.0,0.0,0.0,0.0,0.0,0.0,0.0,0.0,0.0,0.0,0.0,4.141082989799731,12.854738957396792,27.711424389263453,48.8483293262597,67.61027224443374,130.76556297466442,126.25178572866425,115.02565641323308,94.53678967861296,63.783409067189226,25.7290764920593,0.0,0.0,0.0,0.0,0.0,0.0,0.0,0.0,0.0,0.0,0.0,0.0,0.0,5.299005489236323,39.31024796089508,76.0296282648932,102.3476259393796,118.42102960248,124.1322477906001,121.67889146271504,111.2771875450514,91.41611785923791,61.76186401545364,25.042162423303623,0.0,0.0,0.0,0.0,0.0,0.0,0.0,0.0,0.0,0.0,0.0,0.0,0.0,4.8279970585554,14.954678318195228,62.56636954780359,75.61741556600941,116.94920857864008,123.09223804290968,120.9135830848965,110.3942877036386,90.61161232688798,61.31045416203843,23.80584561480418,0.0,0.0,0.0,0.0,0.0,0.0,0.0,0.0,0.0,0.0,0.0,0.0,0.0,2.139136515329864,7.948347589778537,39.11394090008605,36.79809590121287,50.81075735804625,69.7494087597636,56.875071225101095,72.55586076658342,35.75776486537056,11.147413718216423,0.0195985772657136,0.0,0.0,0.0,0.0,0.0,0.0,0.0,0.0,0.0,0.0,0.0,0.0,0.0,0.0,1.0204111704246992,0.5102055852123496,6.142708176117703,39.84005212337316,27.65262865746631,63.80300764445493,69.21960459728554,45.82597168136515,5.024304119364435,23.550742822198007,0.0,0.0,0.0,0.0,0.0,0.0,0.0,0.0,0.0,0.0,0.0,0.0,0.0,7.084725037479546,44.393026523904766,84.03709287462078,112.57262137349989,130.35335027578066,136.849475418985,129.43093199168453,118.2639196962024,97.3824388399642,66.84496386661522,28.260827129007232,0.0,0.0,0.0,0.0,0.0,0.0,0.0,0.0,0.0,0.0,0.0,0.0,0.0,7.496937736363328,43.52972525975768,80.03319992568103,106.09609480756129,121.91439567805548,128.2338123377165,125.5648716599086,114.55464798255215,94.5955854104101,64.74502450581677,27.26001453584825,0.0,0.0,0.0,0.0,0.0,0.0,0.0,0.0,0.0,0.0,0.0,0.0,0.0,4.984785676681111,39.40824084722365,61.82065974725078,85.3910011467145,103.58426403603094,103.64305976782808,103.68225692235951,62.154478137071706,43.54932383702339,59.70112180918663,26.160887768208788,0.0,0.0,0.0,0.0,0.0,0.0,0.0,0.0,0.0,0.0,0.0,0.0,0.0,2.845649161351247,24.23765689095368,54.461233339899344,65.01972587568866,79.22869439333108,77.32506209334167,95.41968952002576,70.92692983646592,35.8168818853196,11.206209450013564,11.108216563684994,0.0,0.0,0.0,0.0,0.0,0.0,0.0,0.0,0.0,0.0,0.0,0.0,0.0,6.083912444320561,29.8309623273276,40.19314780230789,66.58986107400904,92.47604747234595,91.20053350931506,83.9191801228746,72.65417494106389,70.25961434497596,40.78206898473499,9.45968705630177,0.0,0.0,0.0,0.0,0.0,0.0,0.0,0.0,0.0,0.0,0.0,0.0,0.0,3.2382632829693145,17.957437385824083,47.33698985973648,48.8483293262597,61.13374567849511,74.40069733477569,86.39181373987348,76.26513248023366,67.5514765126366,48.98551936711971,15.209781110801403,0.0,0.0,0.0,0.0,0.0,0.0,0.0,0.0,0.0,0.0,0.0,0.0,0.0,8.753174410280385,44.23623790577905,79.32668727965965,104.44756530017804,118.617336663289,128.3909222439941,124.62285479854674,112.12121152008469,90.41530526607896,59.151719069442855,25.689879337527877,0.0,0.0,0.0,0.0,0.0,0.0,0.0,0.0,0.0,0.0,0.0,0.0,0.0,9.577278519896051,47.39578559153362,85.48931532119498,112.98483407238366,129.80394753603687,136.2804741019755,133.61121213601567,109.56986230587104,100.6011035456678,63.86180337625207,30.65506643694327,0.0,0.0,0.0,0.0,0.0,0.0,0.0,0.0,0.0,0.0,0.0,0.0,0.0,9.322175727289876,43.33341819894864,73.94928748136047,113.18114113319272,128.2338123377165,133.68992773323043,129.86274326783402,115.83048323373492,90.10108545352374,59.99542175632424,25.788193512008338,0.0,0.0,0.0,0.0,0.0,0.0,0.0,0.0,0.0,0.0,0.0,0.0,0.0,9.911096909716976,4.435382936937334,86.64691653247965,37.95601840064946,46.473367307437485,64.09730759159254,137.10457821159116,122.34620695420496,100.93460064733684,67.78698072797707,30.537474973348985,0.0,0.0,0.0,0.0,0.0,0.0,0.0,0.0,0.0,0.0,0.0,0.0,0.0,10.970705234673105,48.80881088357638,84.82199982970499,109.9820750047548,125.2898490018848,131.33456429167393,129.19542777634408,117.43981558658672,97.87304584791084,67.96368921152039,30.65506643694327,0.0,0.0,0.0,0.0,0.0,0.0,0.0,0.0,0.0,0.0,0.0,0.0,0.0,11.63802072616306,51.59566431313049,89.19826574669331,116.6941057860339,133.14020370533476,139.4596203649958,136.26055423655788,124.2890364087258,99.77667814790026,69.84772293424408,31.98969741992317,1.6289309301175143,0.0,0.0,0.0,0.0,0.0,0.0,0.0,0.0,0.0,0.0,0.0,0.0,11.775532055174953,50.339748927365335,87.47134193024723,113.1612212677751,127.93951239057893,128.74401792292886,126.09467582238663,114.55464798255215,93.77116001264254,65.45153715183817,29.477545360240967,1.1187253449051644,0.0,0.0,0.0,0.0,0.0,0.0,0.0,0.0,0.0,0.0,0.0,0.0,11.579224994365918,45.25664907620376,85.70522095926972,111.88570730474424,126.70319558207946,131.727178413292,129.9607361541626,112.6118185280313,92.69195311042068,64.15610332338967,28.771032714219583,1.0008125931589855,0.0,0.0,0.0,0.0,0.0,0.0,0.0,0.0,0.0,0.0,0.0,0.0,12.148226311375408,49.7116305904068,85.25381110585451,111.33630456500045,126.56568425306756,133.27771503434664,131.0010671900049,119.57895210191658,99.52157535529406,67.23725670008139,30.65506643694327,1.7664422591294069,0.0,0.0,0.0,0.0,0.0,0.0,0.0,0.0,0.0,0.0,0.0,0.0,11.04909954373596,42.72489843925582,85.2342125285888,99.16815838820744,125.19185611555622,129.9806560195802,126.87958277747089,115.33987622578827,94.37967977233536,48.33780245289546,29.497465225658573,1.4914196011056216,0.0,0.0,0.0,0.0,0.0,0.0,0.0,0.0,0.0,0.0,0.0,0.0,12.364131949450154,48.35740103016117,65.53025274905292,75.85291978134988,80.58292395357671,118.06761263539336,127.60569400075796,78.73808738538445,93.1433629638359,63.194487884762125,29.16364683583765,1.334630982979912,0.0,0.0,0.0,0.0,0.0,0.0,0.0,0.0,0.0,0.0,0.0,0.0,10.538893958523609,37.81850707163757,72.92887631093578,108.4707355382316,124.36775200594056,99.1485598109417,108.41193980643445,93.69276570357968,85.15549693137403,61.82065974725078,29.575859534721427,1.6681280846489417,0.0,0.0,0.0,0.0,0.0,0.0,0.0,0.0,0.0,0.0,0.0,0.0,9.224182840961308,32.93171428128502,33.030028455765496,18.781862783591645,50.57525314270579,68.59148626032702,127.54689826896085,116.10518460360682,96.44010069045044,67.29637372003043,30.262773603477093,2.178333669861291,0.0,0.0,0.0,0.0,0.0,0.0,0.0,0.0,0.0,0.0,0.0,0.0,14.26776424943956,51.791971373939525,86.45093075982253,83.82118723654604,126.17307013144948,130.80476012919587,128.8227335201436,117.93042259453335,98.20654294957988,68.92530465014794,31.499090411976542,2.5709477914793584,0.0,0.0,0.0,0.0,0.0,0.0,0.0,0.0,0.0,0.0,0.0,0.0,14.895882586398086,51.674379910345245,84.72400694337645,107.98012853028494,125.25065184735335,131.1186586535992,127.62529257802368,101.3468133462206,96.97022614108042,66.09925406606241,31.42069610291369,2.5513492142136447,0.0,0.0,0.0,0.0,0.0,0.0,0.0,0.0,0.0,0.0,0.0,0.0,14.699575525589056,50.71276447171769,74.14559454216952,80.30790129555292,102.97574427633812,114.7901521978926,102.6226485974034,99.79627672516597,85.15549693137403,41.84167730969112,20.05737674662252,1.0008125931589855,0.0,0.0,0.0,0.0,0.0,0.0,0.0,0.0,0.0,0.0,0.0,0.0,2.041143629001295,8.517670194939923,13.463258717089609,25.37598081312456,13.600448757949604,9.027875780152277,30.969286249498484,42.90160692279915,3.2578618602350287,24.276854045485106,11.52010797441688,0.0195985772657136,0.0,0.0,0.0,0.0,0.0,0.0,0.0,0.0,0.0,0.0,0.0,0.0,8.125056073321856,25.27766663864409,40.448571883065966,37.89722266885232,56.71796131882349,46.13987020576846,43.392213930745775,47.3761870142679,45.64926319782182,14.091055765896238,6.515723720470057,0.0,0.0,0.0,0.0,0.0,0.0,0.0,0.0,0.0,0.0,0.0,0.0,0.0,2.413837885201752,10.224995434120292,38.17192403872421,55.28533744951501,93.31975015922733,128.0767024314389,103.42715412975332,100.52238794845306,94.006664227983,41.03717177734117,19.704281067687777,1.1775210767023054,0.0,0.0,0.0,0.0,0.0,0.0,0.0,0.0,0.0,0.0,0.0,0.0,17.447231800611736,18.93865140171735,58.17050505354959,92.27974041153692,131.1186586535992,136.49637974005026,135.06343458258988,124.70124910760958,104.27085681663472,38.269916925052776,19.311666946069707,1.5897337755860868,0.0,0.0,0.0,0.0,0.0,0.0,0.0,0.0,0.0,0.0,0.0,0.0,20.80308654717533,62.978582246687374,99.75707957063452,125.95716449337476,140.40163722635762,145.3276271712416,142.835394976977,129.48972772348168,107.35201019332642,75.48022552514942,35.32627487737296,3.846783042662129,0.0,0.0,0.0,0.0,0.0,0.0,0.0,0.0,0.0,0.0,0.0,0.0,20.54798375456916,60.72153297961133,94.85068820301628,118.1463282326081,131.05986292180205,134.65122188370609,133.65040929054712,120.481771808747,99.38406402628218,70.08322714958453,34.05043962619019,3.670074559118809,0.0,0.0,0.0,0.0,0.0,0.0,0.0,0.0,0.0,0.0,0.0,0.0,20.29288096196298,59.01420774043096,91.8283305581217,119.2059365575642,133.2185980143976,73.63538895695716,136.45686129736694,123.81802797804488,103.44675270701906,71.12323689727495,34.85526644669204,4.376587205140193,0.0,0.0,0.0,0.0,0.0,0.0,0.0,0.0,0.0,0.0,0.0,0.0,19.998581014825376,57.97419799274056,91.2397306638465,114.81007206331022,61.68346970639079,105.01656661718752,106.94011878259454,80.44541262456481,51.37975867505575,39.97724216423314,19.723879644953488,1.864435145457975,0.0,0.0,0.0,0.0,0.0,0.0,0.0,0.0,0.0,0.0,0.0,0.0,2.217852112544615,4.906391367618256,5.3773997982991775,18.212540178430256,40.48776903759739,55.52084166485547,71.41753684441254,56.34526706262304,55.75634588019594,26.435589138080683,13.266951656280574,0.844023975033276,0.0,0.0,0.0,0.0,0.0,0.0,0.0,0.0,0.0,0.0,0.0,0.0,0.8636225522989897,3.709271713650237,13.8950699932391,21.568716213145752,22.334024590964276,23.864641346601324,16.406900764769425,18.52643870283357,15.955490911354214,8.71365596759706,4.023170238053552,0.0,0.0,0.0,0.0,0.0,0.0,0.0,0.0,0.0,0.0,0.0,0.0,0.0,0.3730155443523538,0.3534169670866401,6.221423773332454,10.480098226726469,18.58555572278261,13.345345965343428,15.935892334088502,9.577278519896051,19.54717116141017,16.190995126694673,7.830756126184255,0.1963070608090337,0.0,0.0,0.0,0.0,0.0,0.0,0.0,0.0,0.0,0.0,0.0,0.0,21.254496400590536,57.99379657000626,89.29657992117377,111.23799039051998,69.84772293424408,60.46643018700515,81.03433380699192,63.66549631544305,100.75789216379351,33.1868170738912,34.246746686999224,4.59249284321494,0.0,0.0,0.0,0.0,0.0,0.0,0.0,0.0,0.0,0.0,0.0,0.0,5.907203960777241,29.00653692956004,58.30769509440958,66.84496386661522,58.346892248941,63.64589773817733,74.81291003365946,64.21489905518682,86.11711237000159,49.29941789152303,25.27766663864409,3.512964652841202,0.0,0.0,0.0,0.0,0.0,0.0,0.0,0.0,0.0,0.0,0.0,0.0,23.550742822198007,61.48716264558176,84.09556731826602,98.57955849393224,115.2023648967764,120.56016611780986,115.75176763652016,105.33078642974274,85.9799223291416,50.63404887450293,25.788193512008338,3.768067445447378,0.0,0.0,0.0,0.0,0.0,0.0,0.0,0.0,0.0,0.0,0.0,0.0,22.785434444379483,52.81270383251612,66.6878539603376,75.02881567173421,78.69889023085302,87.53013766204437,105.76259770589222,89.84630394906945,51.89028554841999,28.6534412506253,14.228567094908133,1.511018178371335,0.0,0.0,0.0,0.0,0.0,0.0,0.0,0.0,0.0,0.0,0.0,0.0,11.245406604544993,27.35800742217681,43.29422104441721,116.2426959326187,128.46931655305696,134.12141772122803,130.45166445026112,119.7360620081942,99.65876539615408,68.67020185754177,16.42649934203514,4.8279970585554,0.0,0.0,0.0,0.0,0.0,0.0,0.0,0.0,0.0,0.0,0.0,0.0,23.648735708526576,59.053404894962384,54.73593470977123,76.36344665471412,97.99063731150513,128.27300949224792,124.17112365697962,113.22033828772412,94.57598683314438,67.25717656549901,19.5863683159416,2.806452006819819,0.0,0.0,0.0,0.0,0.0,0.0,0.0,0.0,0.0,0.0,0.0,0.0,4.023170238053552,20.430392290974872,35.6793705563077,38.87843668474559,57.26768534671916,82.62374629442611,90.55281659509085,87.90315320639672,99.65908668430596,46.88558000632127,15.24897826533283,2.001946474469868,0.0,0.0,0.0,0.0,0.0,0.0,0.0,0.0,0.0,0.0,0.0,0.0,26.475107580764007,66.31483841598526,99.89426961149454,123.2490266610354,136.75148253265644,141.971772424678,138.24290213376204,125.95716449337476,105.31118785247703,75.02881567173421,37.34749864095664,5.573706859108212,0.0,0.0,0.0,0.0,0.0,0.0,0.0,0.0,0.0,0.0,0.0,0.2747013698718884,27.044108897773494,64.4899217132106,96.89151054386566,116.28189308715012,129.78434895877115,134.8086530781356,136.1429627729636,119.63774783371376,99.63916681888836,71.04484258821209,36.18957614152005,5.770013919917246,0.0,0.0,0.0,0.0,0.0,0.0,0.0,0.0,0.0,0.0,0.0,1.0008125931589855,28.31962286080437,66.45234974499714,98.2656599695289,120.46217323148127,132.6103995428567,136.31967125650692,133.0618093962719,121.99278998711834,102.66152446378292,73.57659322516002,37.79890849437185,6.142708176117703,0.0,0.0,0.0,0.0,0.0,0.0,0.0,0.0,0.0,0.0,0.0,0.726111223287097,24.43396395176271,47.160281376193154,71.18203262907208,80.03319992568103,99.5607725098255,85.50891389846069,112.23880298367897,60.91784004042036,63.685094892708754,69.55310169895456,34.08963678072162,5.554108281842497,0.0,0.0,0.0,0.0,0.0,0.0,0.0,0.0,0.0,0.0,0.0,0.0,22.608725960836164,34.89446360122347,32.4607058506041,35.875677617116736,56.97306411142967,74.3027044484471,44.275435060310485,41.50818020802209,42.646504130192966,26.475107580764007,8.02674189884139,3.277460437500742,0.0,0.0,0.0,0.0,0.0,0.0,0.0,0.0,0.0,0.0,0.0,0.0,9.0670729346837,27.102904629570634,25.689879337527877,122.54251401501402,139.38122605593293,145.4847370775192,138.08579222748443,126.80118846840804,106.312000445636,76.0100296876275,37.58300285629711,6.162306753383415,0.0,0.0,0.0,0.0,0.0,0.0,0.0,0.0,0.0,0.0,0.0,2.217852112544615,31.263586196636084,72.04565518137107,107.72502573767878,131.92348547410103,146.1912497235406,150.64623123774365,145.81823417918824,132.15898968944148,107.21482015246642,56.69836274155778,31.008483404029903,6.633315184064339,0.0,0.0,0.0,0.0,0.0,0.0,0.0,0.0,0.0,0.0,0.0,2.3158449988731835,31.361900371116548,70.80933837287162,104.03535260129426,126.52648709853614,139.73432173486765,143.97371889914783,139.5971316940077,127.13468557007704,105.9981019212327,73.83169601776619,38.348311234115634,6.810023667607659,0.0,0.0,0.0,0.0,0.0,0.0,0.0,0.0,0.0,0.0,0.0,2.728057697756965,32.24480021252936,71.16243405180637,102.17091745583627,123.30782239283252,135.2205444888675,138.83182331618914,134.47483468831467,122.77801823035446,103.32883995527288,74.24358742849807,38.40742825406467,6.633315184064339,0.0,0.0,0.0,0.0,0.0,0.0,0.0,0.0,0.0,0.0,0.0,2.924364758565998,31.656200318254147,70.10282572685024,101.93541324049582,123.44533372184443,118.79404514683236,141.01015698605045,137.1437753661226,125.54527308264284,105.33078642974274,73.55699464789431,38.152325461458496,6.712030781279089,0.0,0.0,0.0,0.0,0.0,0.0,0.0,0.0,0.0,0.0,0.0,3.1007519539574218,30.65506643694327,67.59067366716802,69.25880175181697,62.154478137071706,69.92611724330693,31.4402946801794,98.0889514859856,122.3854041087364,100.95419922460256,71.6334424824873,35.973670503445305,6.829622244873373,0.0,0.0,0.0,0.0,0.0,0.0,0.0,0.0,0.0,0.0,0.0,3.0027590676288534,29.75256801826475,42.90160692279915,76.65774660185173,118.53894235422617,101.93541324049582,136.33926983377265,132.09987266949244,121.40419009284314,102.46553869112576,74.12599596490381,37.81850707163757,6.927936419353837,0.0,0.0,0.0,0.0,0.0,0.0,0.0,0.0,0.0,0.0,0.0,3.4933660755754894,30.28237218074281,65.13763862743484,77.57984359779596,94.36008119506964,41.42978589895924,89.17898845757949,112.80812558884035,94.49727123592965,54.9910375023774,35.6793705563077,16.681923422793208,6.378212391458164,0.0,0.0,0.0,0.0,0.0,0.0,0.0,0.0,0.0,0.0,0.0,2.924364758565998,5.141895582958717,20.66589650631533,26.88699899149589,33.24593409384024,63.25328361655927,93.7515614353768,55.63875441660166,52.361293979100914,31.61700316372272,26.435589138080683,15.935892334088502,6.927936419353837,0.0,0.0,0.0,0.0,0.0,0.0,0.0,0.0,0.0,0.0,0.0,1.884033722723689,10.813595328395497,69.4355102353603,73.85129459503192,87.88355462913101,93.26095442743018,87.96194893819386,98.99144990466412,88.41335879160907,82.761257623438,57.3068825012506,36.93528594207286,7.516536313629041,0.0,0.0,0.0,0.0,0.0,0.0,0.0,0.0,0.0,0.0,0.0,0.1963070608090337,1.825237990926548,7.418543427300474,11.441713665354026,11.853926364237807,18.91905282445164,23.354435761388974,54.461233339899344,47.98470677396072,36.36628